   Input file: BATCH_IN.txt
  Output file: BATCH_OUT.txt
Database file: database.dat

------------------
Reading data base.
------------------

	SOLUTION_MASTER_SPECIES
	SOLUTION_SPECIES
	EXCHANGE_MASTER_SPECIES
	EXCHANGE_SPECIES
	SURFACE_MASTER_SPECIES
	SURFACE_SPECIES
	PHASES
	END
------------------------------------
Reading input data for simulation 1.
------------------------------------

	SOLUTION 1
	pH 7.885
	pe 1.9595
	temp    12
	water 0.075347
	units	mg/L
	Cl 6.305
	S(6) 47.755
	C 42.7
	N(+5)	1.397506E-01
	Ca	    7.226813E+00
	Mg	    5.875167E+00
	Na	    1.383267E+01
	K	    1.176236E+00
	Cat     1 charge
	SAVE SOLUTION 1
	END
-------------------------------------------
Beginning of initial solution calculations.
-------------------------------------------

Initial solution 1.	

-----------------------------Solution composition------------------------------

	Elements           Molality       Moles

	C                 6.999e-04   5.273e-05
	Ca                1.803e-04   1.359e-05
	Cat               2.371e-03   1.787e-04  Charge balance
	Cl                1.779e-04   1.340e-05
	K                 3.009e-05   2.267e-06
	Mg                2.417e-04   1.821e-05
	N(5)              9.979e-06   7.519e-07
	Na                6.018e-04   4.534e-05
	S(6)              1.490e-03   1.122e-04

----------------------------Description of solution----------------------------

                                       pH  =   7.885    
                                       pe  =   1.960    
      Specific Conductance (µS/cm,  12°C)  = 1
                          Density (g/cm³)  =   0.99972
                               Volume (L)  =   0.07538
                        Activity of water  =   1.000
                 Ionic strength (mol/kgw)  =   5.553e-03
                       Mass of water (kg)  =   7.535e-02
                 Total alkalinity (eq/kg)  =   6.803e-04
                       Total CO2 (mol/kg)  =   6.999e-04
                         Temperature (°C)  =  12.00
                  Electrical balance (eq)  =   2.454e-16
 Percent error, 100*(Cat-|An|)/(Cat+|An|)  =   0.00
                               Iterations  =   7
                                  Total H  = 8.364505e+00
                                  Total O  = 4.182835e+00

----------------------------Distribution of species----------------------------

                                               Log       Log       Log    mole V
   Species          Molality    Activity  Molality  Activity     Gamma   cm³/mol

   OH-             2.896e-07   2.676e-07    -6.538    -6.573    -0.034     (0)  
   H+              1.398e-08   1.303e-08    -7.854    -7.885    -0.031      0.00
   H2O-0.01        9.558e-10   9.558e-10    -9.020    -9.020    -0.000     (0)  
   H2O             5.551e+01   9.999e-01     1.744    -0.000     0.000     18.03
C(4)          6.999e-04
   HCO3-           6.724e-04   6.234e-04    -3.172    -3.205    -0.033     (0)  
   CO2             2.258e-05   2.261e-05    -4.646    -4.646     0.001     (0)  
   CO3-2           2.229e-06   1.646e-06    -5.652    -5.784    -0.132     (0)  
   MgHCO3+         1.195e-06   1.106e-06    -5.923    -5.956    -0.034     (0)  
   CaHCO3+         7.677e-07   7.117e-07    -6.115    -6.148    -0.033     (0)  
   CaCO3           2.655e-07   2.658e-07    -6.576    -6.575     0.001     (0)  
   MgCO3           2.026e-07   2.028e-07    -6.693    -6.693     0.001     (0)  
   NaHCO3          1.940e-07   1.943e-07    -6.712    -6.712     0.001     (0)  
   NaCO3-          9.251e-09   8.559e-09    -8.034    -8.068    -0.034     (0)  
Ca            1.803e-04
   Ca+2            1.577e-04   1.164e-04    -3.802    -3.934    -0.132     (0)  
   CaSO4           2.162e-05   2.165e-05    -4.665    -4.665     0.001     (0)  
   CaHCO3+         7.677e-07   7.117e-07    -6.115    -6.148    -0.033     (0)  
   CaCO3           2.655e-07   2.658e-07    -6.576    -6.575     0.001     (0)  
   CaOH+           1.602e-09   1.482e-09    -8.795    -8.829    -0.034     (0)  
   CaHSO4+         1.552e-12   1.436e-12   -11.809   -11.843    -0.034     (0)  
Cat           2.371e-03
   Cat+            2.371e-03   2.194e-03    -2.625    -2.659    -0.034     (0)  
Cl            1.779e-04
   Cl-             1.779e-04   1.644e-04    -3.750    -3.784    -0.034     (0)  
   HCl             4.574e-13   4.580e-13   -12.340   -12.339     0.001     (0)  
H(0)          2.989e-23
   H2              1.494e-23   1.496e-23   -22.826   -22.825     0.001     (0)  
K             3.009e-05
   K+              2.991e-05   2.764e-05    -4.524    -4.558    -0.034      8.30
   KSO4-           1.753e-07   1.622e-07    -6.756    -6.790    -0.034     (0)  
   KOH             7.345e-12   7.355e-12   -11.134   -11.133     0.001     (0)  
Mg            2.417e-04
   Mg+2            2.128e-04   1.577e-04    -3.672    -3.802    -0.130     (0)  
   MgSO4           2.752e-05   2.756e-05    -4.560    -4.560     0.001     (0)  
   MgHCO3+         1.195e-06   1.106e-06    -5.923    -5.956    -0.034     (0)  
   MgCO3           2.026e-07   2.028e-07    -6.693    -6.693     0.001     (0)  
   MgOH+           1.391e-08   1.287e-08    -7.857    -7.890    -0.034     (0)  
N(5)          9.979e-06
   NO3-            9.979e-06   9.213e-06    -5.001    -5.036    -0.035     (0)  
Na            6.018e-04
   Na+             5.986e-04   5.542e-04    -3.223    -3.256    -0.033     (0)  
   NaSO4-          2.915e-06   2.697e-06    -5.535    -5.569    -0.034     (0)  
   NaHCO3          1.940e-07   1.943e-07    -6.712    -6.712     0.001     (0)  
   NaCO3-          9.251e-09   8.559e-09    -8.034    -8.068    -0.034     (0)  
   NaOH            2.806e-10   2.810e-10    -9.552    -9.551     0.001     (0)  
O(0)          0.000e+00
   O2              0.000e+00   0.000e+00   -51.207   -51.206     0.001     (0)  
S(6)          1.490e-03
   SO4-2           1.437e-03   1.058e-03    -2.842    -2.975    -0.133     (0)  
   MgSO4           2.752e-05   2.756e-05    -4.560    -4.560     0.001     (0)  
   CaSO4           2.162e-05   2.165e-05    -4.665    -4.665     0.001     (0)  
   NaSO4-          2.915e-06   2.697e-06    -5.535    -5.569    -0.034     (0)  
   KSO4-           1.753e-07   1.622e-07    -6.756    -6.790    -0.034     (0)  
   HSO4-           1.109e-09   1.026e-09    -8.955    -8.989    -0.034     (0)  
   CaHSO4+         1.552e-12   1.436e-12   -11.809   -11.843    -0.034     (0)  

------------------------------Saturation indices-------------------------------

  Phase               SI** log IAP   log K(285 K,   1 atm)

  Anhydrite        -2.58     -6.91   -4.33  CaSO4
  Antarcticite    -15.60    -11.50    4.09  CaCl2:6H2O
  Aragonite        -1.45     -9.72   -8.26  CaCO3
  Bischofite      -15.76    -11.37    4.39  MgCl2:6H2O
  CO2(g)           -3.35     -4.65   -1.30  CO2
  Dolomite         -2.53    -19.30  -16.77  CaMg(CO3)2
  Fix_pH           -7.88     -7.88    0.00  H+
  Gypsum           -2.32     -6.91   -4.59  CaSO4:2H2O
  H2(g)           -19.73    -22.82   -3.09  H2
  H2O(g)           -1.86     -0.00    1.86  H2O
  Halite           -8.59     -7.04    1.55  NaCl
  HCl(g)          -18.56    -11.67    6.89  HCl
  Kalicinite       -8.05     -7.76    0.28  KHCO3
  Nahcolite        -6.20     -6.46   -0.26  NaHCO3
  O2(g)           -48.42    -51.21   -2.78  O2

**For a gas, SI = log10(fugacity). Fugacity = pressure * phi / 1 atm.
  For ideal gases, phi = 1.

------------------
End of simulation.
------------------

------------------------------------
Reading input data for simulation 2.
------------------------------------

	USE SOLUTION 1
	GAS_PHASE 1
	fixed_volume
	volume 		0.076
	pressure       1
	H2(g)   		0  		#only H2, CO2 can form in the headspace
	CO2(g)   		0
	EQUILIBRIUM_PHASES 1
	Magnetite 0 0   #Strong precipitate
	Maghemite 0 0   #Weaker precipitate
	KINETICS 1
	steps 9072000 in 105
	Waterox
	formula 	H2O 2.0 			Fe+2 -1.0 			   H2 -1.0 		OH-		-2.0
	parms 1.6257e-09 8.2174e-21 0.098104
	m0 0
	tol 1e-10
	cvode true
	RATES
	Waterox
	start
	20 G=(parm(3)- m*55.845)#gFe ASSUMING ONLY WATER CONSUMES IRON
	21 if G<0 then G=0
	22 IAP = ACT("Fe+2")*ACT("H2")*ACT("OH-")*ACT("OH-")
	23 if ((IAP/parm(2))-1)<0 then rate = parm(1)*G*((IAP/parm(2))-1) else rate=0
	80 moles=rate*time
	200 save moles
	end
	INCREMENTAL_REACTIONS true
	SELECTED_OUTPUT
	file conc.txt
	reset false
	USER_PUNCH
	headings   days   H2_hs(ml)  pH H2_L
	start
	10 PUNCH   total_time/86400
	11 PUNCH   GAS("H2(g)")*24042.20577
	12 PUNCH   -LA("H+")
	13 PUNCH   mol("H2")*0.1*24042.20577
	end
	END
-----------------------------------------
Beginning of batch-reaction calculations.
-----------------------------------------

Reaction step 1.

WARNING: Element Fe is contained in Maghemite (which has 0.0 mass),	
but is not in solution or other phases.
WARNING: Element Fe is contained in Magnetite (which has 0.0 mass),	
but is not in solution or other phases.
WARNING: Element Fe is contained in Maghemite (which has 0.0 mass),	
but is not in solution or other phases.
WARNING: Element Fe is contained in Magnetite (which has 0.0 mass),	
but is not in solution or other phases.
Using solution 1.	
Using pure phase assemblage 1.	
Using gas phase 1.	
Using kinetics 1.	

Kinetics 1.	

	Time step: 86400 seconds  (Incremented time: 86400 seconds)

	Rate name       Delta Moles Total Moles   Reactant        Coefficient

	Waterox           1.373e-05   1.373e-05   Fe+2                     -1
	                                          H2                       -1
	                                          H2O                       2
	                                          OH-                      -2

-----------------------------------Gas phase-----------------------------------

Total pressure:  0.01      atmospheres 
    Gas volume:   7.60e-02 liters
  Molar volume:   4.55e+03 liters/mole

                                                        Moles in gas
                                            ----------------------------------
Component                log P           P     Initial       Final       Delta

CO2(g)                   -3.75   1.784e-04   0.000e+00   5.793e-07   5.793e-07
H2(g)                    -2.30   4.960e-03   0.000e+00   1.611e-05   1.611e-05

-------------------------------Phase assemblage--------------------------------

                                                      Moles in assemblage
Phase               SI  log IAP  log K(T, P)   Initial       Final       Delta

Maghemite       -11.15    -4.76      6.39    0.000e+00           0   0.000e+00
Magnetite         0.00     5.07      5.07    0.000e+00   4.568e-06   4.568e-06

-----------------------------Solution composition------------------------------

	Elements           Molality       Moles

	C                 6.922e-04   5.215e-05
	Ca                1.803e-04   1.359e-05
	Cat               2.371e-03   1.787e-04
	Cl                1.779e-04   1.340e-05
	Fe                3.044e-07   2.293e-08
	K                 3.009e-05   2.267e-06
	Mg                2.417e-04   1.821e-05
	N                 9.979e-06   7.519e-07
	Na                6.018e-04   4.534e-05
	S                 1.490e-03   1.122e-04

----------------------------Description of solution----------------------------

                                       pH  =   8.288      Charge balance
                                       pe  =  -7.158      Adjusted to redox equilibrium
      Specific Conductance (µS/cm,  12°C)  = 1
                          Density (g/cm³)  =   0.99967
                               Volume (L)  =   0.07539
                        Activity of water  =   1.000
                 Ionic strength (mol/kgw)  =   5.555e-03
                       Mass of water (kg)  =   7.535e-02
                 Total alkalinity (eq/kg)  =   6.909e-04
                       Total CO2 (mol/kg)  =   6.922e-04
                         Temperature (°C)  =  12.00
                           Pressure (atm)  =  0.01
                  Electrical balance (eq)  =   2.455e-16
 Percent error, 100*(Cat-|An|)/(Cat+|An|)  =   0.00
                               Iterations  = 252
                                  Total H  = 8.364472e+00
                                  Total O  = 4.182815e+00

----------------------------Distribution of species----------------------------

                                               Log       Log       Log    mole V
   Species          Molality    Activity  Molality  Activity     Gamma   cm³/mol

   OH-             7.321e-07   6.765e-07    -6.135    -6.170    -0.034     (0)  
   H+              5.530e-09   5.155e-09    -8.257    -8.288    -0.031      0.00
   H2O-0.01        1.179e-09   1.179e-09    -8.928    -8.928    -0.000     (0)  
   H2O             5.551e+01   9.999e-01     1.744    -0.000     0.000     18.03
C(4)          6.922e-04
   HCO3-           6.742e-04   6.250e-04    -3.171    -3.204    -0.033     (0)  
   CO2             8.956e-06   8.968e-06    -5.048    -5.047     0.001     (0)  
   CO3-2           5.649e-06   4.172e-06    -5.248    -5.380    -0.132     (0)  
   MgHCO3+         1.196e-06   1.107e-06    -5.922    -5.956    -0.034     (0)  
   CaHCO3+         7.679e-07   7.119e-07    -6.115    -6.148    -0.033     (0)  
   CaCO3           6.713e-07   6.722e-07    -6.173    -6.173     0.001     (0)  
   MgCO3           5.127e-07   5.134e-07    -6.290    -6.290     0.001     (0)  
   NaHCO3          1.945e-07   1.948e-07    -6.711    -6.710     0.001     (0)  
   NaCO3-          2.345e-08   2.169e-08    -7.630    -7.664    -0.034     (0)  
   FeCO3           1.804e-08   1.806e-08    -7.744    -7.743     0.001     (0)  
   FeHCO3+         1.219e-08   1.128e-08    -7.914    -7.948    -0.034     (0)  
Ca            1.803e-04
   Ca+2            1.573e-04   1.161e-04    -3.803    -3.935    -0.132     (0)  
   CaSO4           2.157e-05   2.160e-05    -4.666    -4.666     0.001     (0)  
   CaHCO3+         7.679e-07   7.119e-07    -6.115    -6.148    -0.033     (0)  
   CaCO3           6.713e-07   6.722e-07    -6.173    -6.173     0.001     (0)  
   CaOH+           4.041e-09   3.739e-09    -8.393    -8.427    -0.034     (0)  
   CaHSO4+         6.125e-13   5.666e-13   -12.213   -12.247    -0.034     (0)  
Cat           2.371e-03
   Cat+            2.371e-03   2.194e-03    -2.625    -2.659    -0.034     (0)  
Cl            1.779e-04
   Cl-             1.779e-04   1.644e-04    -3.750    -3.784    -0.034     (0)  
   FeCl+           4.426e-11   4.094e-11   -10.354   -10.388    -0.034     (0)  
   HCl             1.809e-13   1.812e-13   -12.742   -12.742     0.001     (0)  
   FeCl+2          2.505e-30   1.835e-30   -29.601   -29.736    -0.135     (0)  
   FeCl2+          2.241e-33   2.073e-33   -32.650   -32.683    -0.034     (0)  
   FeCl3           3.404e-38   3.408e-38   -37.468   -37.467     0.001     (0)  
Fe(2)         3.044e-07
   Fe+2            2.433e-07   1.804e-07    -6.614    -6.744    -0.130     (0)  
   FeSO4           2.645e-08   2.648e-08    -7.578    -7.577     0.001     (0)  
   FeCO3           1.804e-08   1.806e-08    -7.744    -7.743     0.001     (0)  
   FeHCO3+         1.219e-08   1.128e-08    -7.914    -7.948    -0.034     (0)  
   FeOH+           4.333e-09   4.008e-09    -8.363    -8.397    -0.034     (0)  
   FeCl+           4.426e-11   4.094e-11   -10.354   -10.388    -0.034     (0)  
   Fe(OH)2         2.026e-12   2.029e-12   -11.693   -11.693     0.001     (0)  
   Fe(OH)3-        1.383e-14   1.279e-14   -13.859   -13.893    -0.034     (0)  
   FeHSO4+         9.515e-16   8.803e-16   -15.022   -15.055    -0.034     (0)  
Fe(3)         2.014e-16
   Fe(OH)3         1.694e-16   1.696e-16   -15.771   -15.771     0.001     (0)  
   Fe(OH)4-        1.878e-17   1.737e-17   -16.726   -16.760    -0.034     (0)  
   Fe(OH)2+        1.327e-17   1.227e-17   -16.877   -16.911    -0.034     (0)  
   FeOH+2          4.369e-22   3.200e-22   -21.360   -21.495    -0.135     (0)  
   FeSO4+          5.280e-27   4.885e-27   -26.277   -26.311    -0.034     (0)  
   Fe+3            1.071e-27   5.687e-28   -26.970   -27.245    -0.275     (0)  
   Fe(SO4)2-       1.159e-28   1.073e-28   -27.936   -27.970    -0.034     (0)  
   FeCl+2          2.505e-30   1.835e-30   -29.601   -29.736    -0.135     (0)  
   FeCl2+          2.241e-33   2.073e-33   -32.650   -32.683    -0.034     (0)  
   FeHSO4+2        9.516e-35   6.970e-35   -34.022   -34.157    -0.135     (0)  
   FeCl3           3.404e-38   3.408e-38   -37.468   -37.467     0.001     (0)  
   Fe2(OH)2+4      0.000e+00   0.000e+00   -40.775   -41.316    -0.541     (0)  
   Fe3(OH)4+5      0.000e+00   0.000e+00   -54.517   -55.362    -0.845     (0)  
H(0)          8.031e-06
   H2              4.015e-06   4.021e-06    -5.396    -5.396     0.001     (0)  
K             3.009e-05
   K+              2.991e-05   2.764e-05    -4.524    -4.558    -0.034      8.30
   KSO4-           1.753e-07   1.622e-07    -6.756    -6.790    -0.034     (0)  
   KOH             1.857e-11   1.859e-11   -10.731   -10.731     0.001     (0)  
Mg            2.417e-04
   Mg+2            2.125e-04   1.574e-04    -3.673    -3.803    -0.130     (0)  
   MgSO4           2.748e-05   2.752e-05    -4.561    -4.560     0.001     (0)  
   MgHCO3+         1.196e-06   1.107e-06    -5.922    -5.956    -0.034     (0)  
   MgCO3           5.127e-07   5.134e-07    -6.290    -6.290     0.001     (0)  
   MgOH+           3.512e-08   3.249e-08    -7.454    -7.488    -0.034     (0)  
N(0)          9.979e-06
   N2              4.989e-06   4.996e-06    -5.302    -5.301     0.001     (0)  
N(3)          0.000e+00
   NO2-            0.000e+00   0.000e+00   -69.662   -69.696    -0.035     (0)  
N(5)          0.000e+00
   NO3-            0.000e+00   0.000e+00   -97.434   -97.469    -0.035     (0)  
Na            6.018e-04
   Na+             5.986e-04   5.542e-04    -3.223    -3.256    -0.034     (0)  
   NaSO4-          2.915e-06   2.697e-06    -5.535    -5.569    -0.034     (0)  
   NaHCO3          1.945e-07   1.948e-07    -6.711    -6.710     0.001     (0)  
   NaCO3-          2.345e-08   2.169e-08    -7.630    -7.664    -0.034     (0)  
   NaOH            7.093e-10   7.102e-10    -9.149    -9.149     0.001     (0)  
O(0)          0.000e+00
   O2              0.000e+00   0.000e+00   -86.065   -86.065     0.001     (0)  
S(6)          1.490e-03
   SO4-2           1.437e-03   1.058e-03    -2.842    -2.975    -0.133     (0)  
   MgSO4           2.748e-05   2.752e-05    -4.561    -4.560     0.001     (0)  
   CaSO4           2.157e-05   2.160e-05    -4.666    -4.666     0.001     (0)  
   NaSO4-          2.915e-06   2.697e-06    -5.535    -5.569    -0.034     (0)  
   KSO4-           1.753e-07   1.622e-07    -6.756    -6.790    -0.034     (0)  
   FeSO4           2.645e-08   2.648e-08    -7.578    -7.577     0.001     (0)  
   HSO4-           4.387e-10   4.058e-10    -9.358    -9.392    -0.034     (0)  
   CaHSO4+         6.125e-13   5.666e-13   -12.213   -12.247    -0.034     (0)  
   FeHSO4+         9.515e-16   8.803e-16   -15.022   -15.055    -0.034     (0)  
   FeSO4+          5.280e-27   4.885e-27   -26.277   -26.311    -0.034     (0)  
   Fe(SO4)2-       1.159e-28   1.073e-28   -27.936   -27.970    -0.034     (0)  
   FeHSO4+2        9.516e-35   6.970e-35   -34.022   -34.157    -0.135     (0)  

------------------------------Saturation indices-------------------------------

  Phase               SI** log IAP   log K(285 K,   0 atm)

  Anhydrite        -2.58     -6.91   -4.33  CaSO4
  Antarcticite    -15.60    -11.50    4.09  CaCl2:6H2O
  Aragonite        -1.05     -9.31   -8.26  CaCO3
  Bischofite      -15.76    -11.37    4.39  MgCl2:6H2O
  CO2(g)           -3.75     -5.05   -1.30  CO2
  Dolomite         -1.72    -18.50  -16.77  CaMg(CO3)2
  Fe(OH)3(a)       -7.27     -2.38    4.89  Fe(OH)3
  Fix_pH           -8.29     -8.29    0.00  H+
  Goethite         -3.36     -2.38    0.97  FeOOH
  Gypsum           -2.32     -6.91   -4.59  CaSO4:2H2O
  H2(g)            -2.30     -5.40   -3.09  H2
  H2O(g)           -1.86     -0.00    1.86  H2O
  Halite           -8.59     -7.04    1.55  NaCl
  HCl(g)          -18.96    -12.07    6.89  HCl
  Hematite         -4.38     -4.76   -0.39  Fe2O3
  Ironcarbonate    -3.85     -2.29    1.56  Fe2(CO3)(OH)2
  Ironhydroxide    -4.17      9.83   14.00  Fe(OH)2
  Kalicinite       -8.05     -7.76    0.28  KHCO3
  Lepidocrocite    -3.75     -2.38    1.37  FeOOH
  Maghemite       -11.15     -4.76    6.39  Fe2O3
  Magnetite         0.00      5.07    5.07  Fe3O4
  Melanterite      -7.34     -9.72   -2.38  FeSO4:7H2O
  N2(g)            -2.09     -5.30   -3.21  N2
  Nahcolite        -6.20     -6.46   -0.26  NaHCO3
  O2(g)           -83.28    -86.06   -2.78  O2
  Siderite         -1.56    -12.12  -10.57  FeCO3

**For a gas, SI = log10(fugacity). Fugacity = pressure * phi / 1 atm.
  For ideal gases, phi = 1.

Reaction step 2.

Using solution 1.	
Using pure phase assemblage 1.	
Using gas phase 1.	
Using kinetics 1.	

Kinetics 1.	

	Time step: 86400 seconds  (Incremented time: 172800 seconds)

	Rate name       Delta Moles Total Moles   Reactant        Coefficient

	Waterox           1.362e-05   2.734e-05   Fe+2                     -1
	                                          H2                       -1
	                                          H2O                       2
	                                          OH-                      -2

-----------------------------------Gas phase-----------------------------------

Total pressure:  0.01      atmospheres 
    Gas volume:   7.60e-02 liters
  Molar volume:   2.20e+03 liters/mole

                                                        Moles in gas
                                            ----------------------------------
Component                log P           P     Initial       Final       Delta

CO2(g)                   -3.75   1.772e-04   5.793e-07   5.757e-07  -3.682e-09
H2(g)                    -1.98   1.045e-02   1.611e-05   3.393e-05   1.782e-05

-------------------------------Phase assemblage--------------------------------

                                                      Moles in assemblage
Phase               SI  log IAP  log K(T, P)   Initial       Final       Delta

Maghemite       -11.26    -4.87      6.39    0.000e+00           0   0.000e+00
Magnetite         0.00     5.07      5.07    4.568e-06   9.105e-06   4.537e-06

-----------------------------Solution composition------------------------------

	Elements           Molality       Moles

	C                 6.922e-04   5.216e-05
	Ca                1.803e-04   1.359e-05
	Cat               2.371e-03   1.787e-04
	Cl                1.779e-04   1.340e-05
	Fe                3.854e-07   2.903e-08
	K                 3.009e-05   2.267e-06
	Mg                2.417e-04   1.821e-05
	N                 9.979e-06   7.519e-07
	Na                6.018e-04   4.534e-05
	S                 1.490e-03   1.122e-04

----------------------------Description of solution----------------------------

                                       pH  =   8.291      Charge balance
                                       pe  =  -7.322      Adjusted to redox equilibrium
      Specific Conductance (µS/cm,  12°C)  = 1
                          Density (g/cm³)  =   0.99967
                               Volume (L)  =   0.07539
                        Activity of water  =   1.000
                 Ionic strength (mol/kgw)  =   5.555e-03
                       Mass of water (kg)  =   7.535e-02
                 Total alkalinity (eq/kg)  =   6.910e-04
                       Total CO2 (mol/kg)  =   6.922e-04
                         Temperature (°C)  =  12.00
                           Pressure (atm)  =  0.01
                  Electrical balance (eq)  =  -4.239e-14
 Percent error, 100*(Cat-|An|)/(Cat+|An|)  =  -0.00
                               Iterations  =  42
                                  Total H  = 8.364437e+00
                                  Total O  = 4.182797e+00

----------------------------Distribution of species----------------------------

                                               Log       Log       Log    mole V
   Species          Molality    Activity  Molality  Activity     Gamma   cm³/mol

   OH-             7.368e-07   6.809e-07    -6.133    -6.167    -0.034     (0)  
   H+              5.495e-09   5.122e-09    -8.260    -8.291    -0.031      0.00
   H2O-0.01        1.184e-09   1.184e-09    -8.927    -8.927    -0.000     (0)  
   H2O             5.551e+01   9.999e-01     1.744    -0.000     0.000     18.03
C(4)          6.922e-04
   HCO3-           6.742e-04   6.250e-04    -3.171    -3.204    -0.033     (0)  
   CO2             8.899e-06   8.911e-06    -5.051    -5.050     0.001     (0)  
   CO3-2           5.686e-06   4.200e-06    -5.245    -5.377    -0.132     (0)  
   MgHCO3+         1.196e-06   1.107e-06    -5.922    -5.956    -0.034     (0)  
   CaHCO3+         7.679e-07   7.119e-07    -6.115    -6.148    -0.033     (0)  
   CaCO3           6.757e-07   6.765e-07    -6.170    -6.170     0.001     (0)  
   MgCO3           5.161e-07   5.167e-07    -6.287    -6.287     0.001     (0)  
   NaHCO3          1.945e-07   1.948e-07    -6.711    -6.710     0.001     (0)  
   NaCO3-          2.360e-08   2.183e-08    -7.627    -7.661    -0.034     (0)  
   FeCO3           2.297e-08   2.300e-08    -7.639    -7.638     0.001     (0)  
   FeHCO3+         1.543e-08   1.427e-08    -7.812    -7.846    -0.034     (0)  
Ca            1.803e-04
   Ca+2            1.573e-04   1.161e-04    -3.803    -3.935    -0.132     (0)  
   CaSO4           2.157e-05   2.160e-05    -4.666    -4.666     0.001     (0)  
   CaHCO3+         7.679e-07   7.119e-07    -6.115    -6.148    -0.033     (0)  
   CaCO3           6.757e-07   6.765e-07    -6.170    -6.170     0.001     (0)  
   CaOH+           4.067e-09   3.763e-09    -8.391    -8.424    -0.034     (0)  
   CaHSO4+         6.085e-13   5.630e-13   -12.216   -12.250    -0.034     (0)  
Cat           2.371e-03
   Cat+            2.371e-03   2.194e-03    -2.625    -2.659    -0.034     (0)  
Cl            1.779e-04
   Cl-             1.779e-04   1.644e-04    -3.750    -3.784    -0.034     (0)  
   FeCl+           5.600e-11   5.181e-11   -10.252   -10.286    -0.034     (0)  
   HCl             1.798e-13   1.800e-13   -12.745   -12.745     0.001     (0)  
   FeCl+2          2.170e-30   1.590e-30   -29.663   -29.799    -0.135     (0)  
   FeCl2+          1.941e-33   1.796e-33   -32.712   -32.746    -0.034     (0)  
   FeCl3           2.949e-38   2.953e-38   -37.530   -37.530     0.001     (0)  
Fe(2)         3.854e-07
   Fe+2            3.079e-07   2.283e-07    -6.512    -6.641    -0.130     (0)  
   FeSO4           3.347e-08   3.351e-08    -7.475    -7.475     0.001     (0)  
   FeCO3           2.297e-08   2.300e-08    -7.639    -7.638     0.001     (0)  
   FeHCO3+         1.543e-08   1.427e-08    -7.812    -7.846    -0.034     (0)  
   FeOH+           5.518e-09   5.105e-09    -8.258    -8.292    -0.034     (0)  
   FeCl+           5.600e-11   5.181e-11   -10.252   -10.286    -0.034     (0)  
   Fe(OH)2         2.597e-12   2.601e-12   -11.585   -11.585     0.001     (0)  
   Fe(OH)3-        1.784e-14   1.651e-14   -13.749   -13.782    -0.034     (0)  
   FeHSO4+         1.196e-15   1.107e-15   -14.922   -14.956    -0.034     (0)  
Fe(3)         1.779e-16
   Fe(OH)3         1.496e-16   1.498e-16   -15.825   -15.824     0.001     (0)  
   Fe(OH)4-        1.670e-17   1.545e-17   -16.777   -16.811    -0.034     (0)  
   Fe(OH)2+        1.164e-17   1.077e-17   -16.934   -16.968    -0.034     (0)  
   FeOH+2          3.809e-22   2.790e-22   -21.419   -21.554    -0.135     (0)  
   FeSO4+          4.574e-27   4.232e-27   -26.340   -26.373    -0.034     (0)  
   Fe+3            9.277e-28   4.927e-28   -27.033   -27.307    -0.275     (0)  
   Fe(SO4)2-       1.004e-28   9.292e-29   -27.998   -28.032    -0.034     (0)  
   FeCl+2          2.170e-30   1.590e-30   -29.663   -29.799    -0.135     (0)  
   FeCl2+          1.941e-33   1.796e-33   -32.712   -32.746    -0.034     (0)  
   FeHSO4+2        8.191e-35   5.999e-35   -34.087   -34.222    -0.135     (0)  
   FeCl3           2.949e-38   2.953e-38   -37.530   -37.530     0.001     (0)  
   Fe2(OH)2+4      0.000e+00   0.000e+00   -40.894   -41.435    -0.541     (0)  
   Fe3(OH)4+5      0.000e+00   0.000e+00   -54.693   -55.538    -0.845     (0)  
H(0)          1.691e-05
   H2              8.457e-06   8.468e-06    -5.073    -5.072     0.001     (0)  
K             3.009e-05
   K+              2.991e-05   2.764e-05    -4.524    -4.558    -0.034      8.30
   KSO4-           1.753e-07   1.622e-07    -6.756    -6.790    -0.034     (0)  
   KOH             1.869e-11   1.871e-11   -10.728   -10.728     0.001     (0)  
Mg            2.417e-04
   Mg+2            2.125e-04   1.574e-04    -3.673    -3.803    -0.130     (0)  
   MgSO4           2.748e-05   2.752e-05    -4.561    -4.560     0.001     (0)  
   MgHCO3+         1.196e-06   1.107e-06    -5.922    -5.956    -0.034     (0)  
   MgCO3           5.161e-07   5.167e-07    -6.287    -6.287     0.001     (0)  
   MgOH+           3.535e-08   3.270e-08    -7.452    -7.485    -0.034     (0)  
N(0)          9.979e-06
   N2              4.989e-06   4.996e-06    -5.302    -5.301     0.001     (0)  
N(3)          0.000e+00
   NO2-            0.000e+00   0.000e+00   -70.144   -70.179    -0.035     (0)  
N(5)          0.000e+00
   NO3-            0.000e+00   0.000e+00   -98.240   -98.275    -0.035     (0)  
Na            6.018e-04
   Na+             5.986e-04   5.542e-04    -3.223    -3.256    -0.034     (0)  
   NaSO4-          2.915e-06   2.697e-06    -5.535    -5.569    -0.034     (0)  
   NaHCO3          1.945e-07   1.948e-07    -6.711    -6.710     0.001     (0)  
   NaCO3-          2.360e-08   2.183e-08    -7.627    -7.661    -0.034     (0)  
   NaOH            7.139e-10   7.148e-10    -9.146    -9.146     0.001     (0)  
O(0)          0.000e+00
   O2              0.000e+00   0.000e+00   -86.712   -86.712     0.001     (0)  
S(6)          1.490e-03
   SO4-2           1.437e-03   1.058e-03    -2.842    -2.975    -0.133     (0)  
   MgSO4           2.748e-05   2.752e-05    -4.561    -4.560     0.001     (0)  
   CaSO4           2.157e-05   2.160e-05    -4.666    -4.666     0.001     (0)  
   NaSO4-          2.915e-06   2.697e-06    -5.535    -5.569    -0.034     (0)  
   KSO4-           1.753e-07   1.622e-07    -6.756    -6.790    -0.034     (0)  
   FeSO4           3.347e-08   3.351e-08    -7.475    -7.475     0.001     (0)  
   HSO4-           4.358e-10   4.032e-10    -9.361    -9.394    -0.034     (0)  
   CaHSO4+         6.085e-13   5.630e-13   -12.216   -12.250    -0.034     (0)  
   FeHSO4+         1.196e-15   1.107e-15   -14.922   -14.956    -0.034     (0)  
   FeSO4+          4.574e-27   4.232e-27   -26.340   -26.373    -0.034     (0)  
   Fe(SO4)2-       1.004e-28   9.292e-29   -27.998   -28.032    -0.034     (0)  
   FeHSO4+2        8.191e-35   5.999e-35   -34.087   -34.222    -0.135     (0)  

------------------------------Saturation indices-------------------------------

  Phase               SI** log IAP   log K(285 K,   0 atm)

  Anhydrite        -2.58     -6.91   -4.33  CaSO4
  Antarcticite    -15.60    -11.50    4.09  CaCl2:6H2O
  Aragonite        -1.05     -9.31   -8.26  CaCO3
  Bischofite      -15.76    -11.37    4.39  MgCl2:6H2O
  CO2(g)           -3.75     -5.05   -1.30  CO2
  Dolomite         -1.72    -18.49  -16.77  CaMg(CO3)2
  Fe(OH)3(a)       -7.33     -2.44    4.89  Fe(OH)3
  Fix_pH           -8.29     -8.29    0.00  H+
  Goethite         -3.41     -2.44    0.97  FeOOH
  Gypsum           -2.32     -6.91   -4.59  CaSO4:2H2O
  H2(g)            -1.98     -5.07   -3.09  H2
  H2O(g)           -1.86     -0.00    1.86  H2O
  Halite           -8.59     -7.04    1.55  NaCl
  HCl(g)          -18.97    -12.07    6.89  HCl
  Hematite         -4.48     -4.87   -0.39  Fe2O3
  Ironcarbonate    -3.64     -2.08    1.56  Fe2(CO3)(OH)2
  Ironhydroxide    -4.06      9.94   14.00  Fe(OH)2
  Kalicinite       -8.05     -7.76    0.28  KHCO3
  Lepidocrocite    -3.81     -2.44    1.37  FeOOH
  Maghemite       -11.26     -4.87    6.39  Fe2O3
  Magnetite         0.00      5.07    5.07  Fe3O4
  Melanterite      -7.24     -9.62   -2.38  FeSO4:7H2O
  N2(g)            -2.09     -5.30   -3.21  N2
  Nahcolite        -6.20     -6.46   -0.26  NaHCO3
  O2(g)           -83.93    -86.71   -2.78  O2
  Siderite         -1.45    -12.02  -10.57  FeCO3

**For a gas, SI = log10(fugacity). Fugacity = pressure * phi / 1 atm.
  For ideal gases, phi = 1.

Reaction step 3.

Using solution 1.	
Using pure phase assemblage 1.	
Using gas phase 1.	
Using kinetics 1.	

Kinetics 1.	

	Time step: 86400 seconds  (Incremented time: 259200 seconds)

	Rate name       Delta Moles Total Moles   Reactant        Coefficient

	Waterox           1.351e-05   4.085e-05   Fe+2                     -1
	                                          H2                       -1
	                                          H2O                       2
	                                          OH-                      -2

-----------------------------------Gas phase-----------------------------------

Total pressure:  0.02      atmospheres 
    Gas volume:   7.60e-02 liters
  Molar volume:   1.46e+03 liters/mole

                                                        Moles in gas
                                            ----------------------------------
Component                log P           P     Initial       Final       Delta

CO2(g)                   -3.75   1.765e-04   5.757e-07   5.732e-07  -2.453e-09
H2(g)                    -1.80   1.589e-02   3.393e-05   5.161e-05   1.768e-05

-------------------------------Phase assemblage--------------------------------

                                                      Moles in assemblage
Phase               SI  log IAP  log K(T, P)   Initial       Final       Delta

Maghemite       -11.32    -4.93      6.39    0.000e+00           0   0.000e+00
Magnetite        -0.00     5.07      5.07    9.105e-06   1.361e-05   4.502e-06

-----------------------------Solution composition------------------------------

	Elements           Molality       Moles

	C                 6.923e-04   5.216e-05
	Ca                1.803e-04   1.359e-05
	Cat               2.371e-03   1.787e-04
	Cl                1.779e-04   1.340e-05
	Fe                4.395e-07   3.311e-08
	K                 3.009e-05   2.267e-06
	Mg                2.417e-04   1.821e-05
	N                 9.979e-06   7.519e-07
	Na                6.018e-04   4.534e-05
	S                 1.490e-03   1.122e-04

----------------------------Description of solution----------------------------

                                       pH  =   8.292      Charge balance
                                       pe  =  -7.415      Adjusted to redox equilibrium
      Specific Conductance (µS/cm,  12°C)  = 1
                          Density (g/cm³)  =   0.99967
                               Volume (L)  =   0.07539
                        Activity of water  =   1.000
                 Ionic strength (mol/kgw)  =   5.555e-03
                       Mass of water (kg)  =   7.535e-02
                 Total alkalinity (eq/kg)  =   6.911e-04
                       Total CO2 (mol/kg)  =   6.923e-04
                         Temperature (°C)  =  12.00
                           Pressure (atm)  =  0.02
                  Electrical balance (eq)  =  -2.429e-13
 Percent error, 100*(Cat-|An|)/(Cat+|An|)  =  -0.00
                               Iterations  =  37
                                  Total H  = 8.364401e+00
                                  Total O  = 4.182779e+00

----------------------------Distribution of species----------------------------

                                               Log       Log       Log    mole V
   Species          Molality    Activity  Molality  Activity     Gamma   cm³/mol

   OH-             7.400e-07   6.838e-07    -6.131    -6.165    -0.034     (0)  
   H+              5.471e-09   5.099e-09    -8.262    -8.292    -0.031      0.00
   H2O-0.01        1.186e-09   1.186e-09    -8.926    -8.926    -0.000     (0)  
   H2O             5.551e+01   9.999e-01     1.744    -0.000     0.000     18.03
C(4)          6.923e-04
   HCO3-           6.743e-04   6.251e-04    -3.171    -3.204    -0.033     (0)  
   CO2             8.862e-06   8.873e-06    -5.052    -5.052     0.001     (0)  
   CO3-2           5.711e-06   4.218e-06    -5.243    -5.375    -0.132     (0)  
   MgHCO3+         1.197e-06   1.107e-06    -5.922    -5.956    -0.034     (0)  
   CaHCO3+         7.680e-07   7.119e-07    -6.115    -6.148    -0.033     (0)  
   CaCO3           6.786e-07   6.795e-07    -6.168    -6.168     0.001     (0)  
   MgCO3           5.183e-07   5.190e-07    -6.285    -6.285     0.001     (0)  
   NaHCO3          1.946e-07   1.948e-07    -6.711    -6.710     0.001     (0)  
   FeCO3           2.631e-08   2.634e-08    -7.580    -7.579     0.001     (0)  
   NaCO3-          2.371e-08   2.193e-08    -7.625    -7.659    -0.034     (0)  
   FeHCO3+         1.759e-08   1.627e-08    -7.755    -7.789    -0.034     (0)  
Ca            1.803e-04
   Ca+2            1.573e-04   1.161e-04    -3.803    -3.935    -0.132     (0)  
   CaSO4           2.157e-05   2.160e-05    -4.666    -4.666     0.001     (0)  
   CaHCO3+         7.680e-07   7.119e-07    -6.115    -6.148    -0.033     (0)  
   CaCO3           6.786e-07   6.795e-07    -6.168    -6.168     0.001     (0)  
   CaOH+           4.085e-09   3.779e-09    -8.389    -8.423    -0.034     (0)  
   CaHSO4+         6.059e-13   5.605e-13   -12.218   -12.251    -0.034     (0)  
Cat           2.371e-03
   Cat+            2.371e-03   2.194e-03    -2.625    -2.659    -0.034     (0)  
Cl            1.779e-04
   Cl-             1.779e-04   1.644e-04    -3.750    -3.784    -0.034     (0)  
   FeCl+           6.385e-11   5.907e-11   -10.195   -10.229    -0.034     (0)  
   HCl             1.790e-13   1.792e-13   -12.747   -12.747     0.001     (0)  
   FeCl+2          1.998e-30   1.463e-30   -29.699   -29.835    -0.135     (0)  
   FeCl2+          1.787e-33   1.653e-33   -32.748   -32.782    -0.034     (0)  
   FeCl3           2.714e-38   2.718e-38   -37.566   -37.566     0.001     (0)  
Fe(2)         4.395e-07
   Fe+2            3.511e-07   2.603e-07    -6.455    -6.585    -0.130     (0)  
   FeSO4           3.816e-08   3.821e-08    -7.418    -7.418     0.001     (0)  
   FeCO3           2.631e-08   2.634e-08    -7.580    -7.579     0.001     (0)  
   FeHCO3+         1.759e-08   1.627e-08    -7.755    -7.789    -0.034     (0)  
   FeOH+           6.318e-09   5.845e-09    -8.199    -8.233    -0.034     (0)  
   FeCl+           6.385e-11   5.907e-11   -10.195   -10.229    -0.034     (0)  
   Fe(OH)2         2.987e-12   2.991e-12   -11.525   -11.524     0.001     (0)  
   Fe(OH)3-        2.061e-14   1.906e-14   -13.686   -13.720    -0.034     (0)  
   FeHSO4+         1.358e-15   1.256e-15   -14.867   -14.901    -0.034     (0)  
Fe(3)         1.660e-16
   Fe(OH)3         1.395e-16   1.397e-16   -15.855   -15.855     0.001     (0)  
   Fe(OH)4-        1.564e-17   1.446e-17   -16.806   -16.840    -0.034     (0)  
   Fe(OH)2+        1.081e-17   1.000e-17   -16.966   -17.000    -0.034     (0)  
   FeOH+2          3.521e-22   2.579e-22   -21.453   -21.589    -0.135     (0)  
   FeSO4+          4.211e-27   3.895e-27   -26.376   -26.409    -0.034     (0)  
   Fe+3            8.539e-28   4.535e-28   -27.069   -27.343    -0.275     (0)  
   Fe(SO4)2-       9.245e-29   8.552e-29   -28.034   -28.068    -0.034     (0)  
   FeCl+2          1.998e-30   1.463e-30   -29.699   -29.835    -0.135     (0)  
   FeCl2+          1.787e-33   1.653e-33   -32.748   -32.782    -0.034     (0)  
   FeHSO4+2        7.507e-35   5.498e-35   -34.125   -34.260    -0.135     (0)  
   FeCl3           2.714e-38   2.718e-38   -37.566   -37.566     0.001     (0)  
   Fe2(OH)2+4      0.000e+00   0.000e+00   -40.962   -41.503    -0.541     (0)  
   Fe3(OH)4+5      0.000e+00   0.000e+00   -54.793   -55.638    -0.845     (0)  
H(0)          2.573e-05
   H2              1.286e-05   1.288e-05    -4.891    -4.890     0.001     (0)  
K             3.009e-05
   K+              2.991e-05   2.764e-05    -4.524    -4.558    -0.034      8.30
   KSO4-           1.753e-07   1.622e-07    -6.756    -6.790    -0.034     (0)  
   KOH             1.877e-11   1.879e-11   -10.727   -10.726     0.001     (0)  
Mg            2.417e-04
   Mg+2            2.125e-04   1.574e-04    -3.673    -3.803    -0.130     (0)  
   MgSO4           2.748e-05   2.752e-05    -4.561    -4.560     0.001     (0)  
   MgHCO3+         1.197e-06   1.107e-06    -5.922    -5.956    -0.034     (0)  
   MgCO3           5.183e-07   5.190e-07    -6.285    -6.285     0.001     (0)  
   MgOH+           3.550e-08   3.284e-08    -7.450    -7.484    -0.034     (0)  
N(0)          9.979e-06
   N2              4.989e-06   4.996e-06    -5.302    -5.301     0.001     (0)  
N(3)          0.000e+00
   NO2-            0.000e+00   0.000e+00   -70.415   -70.450    -0.035     (0)  
N(5)          0.000e+00
   NO3-            0.000e+00   0.000e+00   -98.694   -98.728    -0.035     (0)  
Na            6.018e-04
   Na+             5.986e-04   5.542e-04    -3.223    -3.256    -0.034     (0)  
   NaSO4-          2.915e-06   2.697e-06    -5.535    -5.569    -0.034     (0)  
   NaHCO3          1.946e-07   1.948e-07    -6.711    -6.710     0.001     (0)  
   NaCO3-          2.371e-08   2.193e-08    -7.625    -7.659    -0.034     (0)  
   NaOH            7.170e-10   7.179e-10    -9.144    -9.144     0.001     (0)  
O(0)          0.000e+00
   O2              0.000e+00   0.000e+00   -87.077   -87.076     0.001     (0)  
S(6)          1.490e-03
   SO4-2           1.437e-03   1.058e-03    -2.842    -2.975    -0.133     (0)  
   MgSO4           2.748e-05   2.752e-05    -4.561    -4.560     0.001     (0)  
   CaSO4           2.157e-05   2.160e-05    -4.666    -4.666     0.001     (0)  
   NaSO4-          2.915e-06   2.697e-06    -5.535    -5.569    -0.034     (0)  
   KSO4-           1.753e-07   1.622e-07    -6.756    -6.790    -0.034     (0)  
   FeSO4           3.816e-08   3.821e-08    -7.418    -7.418     0.001     (0)  
   HSO4-           4.340e-10   4.015e-10    -9.363    -9.396    -0.034     (0)  
   CaHSO4+         6.059e-13   5.605e-13   -12.218   -12.251    -0.034     (0)  
   FeHSO4+         1.358e-15   1.256e-15   -14.867   -14.901    -0.034     (0)  
   FeSO4+          4.211e-27   3.895e-27   -26.376   -26.409    -0.034     (0)  
   Fe(SO4)2-       9.245e-29   8.552e-29   -28.034   -28.068    -0.034     (0)  
   FeHSO4+2        7.507e-35   5.498e-35   -34.125   -34.260    -0.135     (0)  

------------------------------Saturation indices-------------------------------

  Phase               SI** log IAP   log K(285 K,   0 atm)

  Anhydrite        -2.58     -6.91   -4.33  CaSO4
  Antarcticite    -15.60    -11.50    4.09  CaCl2:6H2O
  Aragonite        -1.05     -9.31   -8.26  CaCO3
  Bischofite      -15.76    -11.37    4.39  MgCl2:6H2O
  CO2(g)           -3.75     -5.05   -1.30  CO2
  Dolomite         -1.71    -18.49  -16.77  CaMg(CO3)2
  Fe(OH)3(a)       -7.36     -2.47    4.89  Fe(OH)3
  Fix_pH           -8.29     -8.29    0.00  H+
  Goethite         -3.44     -2.47    0.97  FeOOH
  Gypsum           -2.32     -6.91   -4.59  CaSO4:2H2O
  H2(g)            -1.80     -4.89   -3.09  H2
  H2O(g)           -1.86     -0.00    1.86  H2O
  Halite           -8.59     -7.04    1.55  NaCl
  HCl(g)          -18.97    -12.08    6.89  HCl
  Hematite         -4.54     -4.93   -0.39  Fe2O3
  Ironcarbonate    -3.52     -1.96    1.56  Fe2(CO3)(OH)2
  Ironhydroxide    -4.00     10.00   14.00  Fe(OH)2
  Kalicinite       -8.05     -7.76    0.28  KHCO3
  Lepidocrocite    -3.84     -2.47    1.37  FeOOH
  Maghemite       -11.32     -4.93    6.39  Fe2O3
  Magnetite        -0.00      5.07    5.07  Fe3O4
  Melanterite      -7.18     -9.56   -2.38  FeSO4:7H2O
  N2(g)            -2.09     -5.30   -3.21  N2
  Nahcolite        -6.20     -6.46   -0.26  NaHCO3
  O2(g)           -84.29    -87.08   -2.78  O2
  Siderite         -1.39    -11.96  -10.57  FeCO3

**For a gas, SI = log10(fugacity). Fugacity = pressure * phi / 1 atm.
  For ideal gases, phi = 1.

Reaction step 4.

Using solution 1.	
Using pure phase assemblage 1.	
Using gas phase 1.	
Using kinetics 1.	

Kinetics 1.	

	Time step: 86400 seconds  (Incremented time: 345600 seconds)

	Rate name       Delta Moles Total Moles   Reactant        Coefficient

	Waterox           1.340e-05   5.426e-05   Fe+2                     -1
	                                          H2                       -1
	                                          H2O                       2
	                                          OH-                      -2

-----------------------------------Gas phase-----------------------------------

Total pressure:  0.02      atmospheres 
    Gas volume:   7.60e-02 liters
  Molar volume:   1.09e+03 liters/mole

                                                        Moles in gas
                                            ----------------------------------
Component                log P           P     Initial       Final       Delta

CO2(g)                   -3.75   1.759e-04   5.732e-07   5.713e-07  -1.893e-09
H2(g)                    -1.67   2.129e-02   5.161e-05   6.915e-05   1.754e-05

-------------------------------Phase assemblage--------------------------------

                                                      Moles in assemblage
Phase               SI  log IAP  log K(T, P)   Initial       Final       Delta

Maghemite       -11.36    -4.97      6.39    0.000e+00           0   0.000e+00
Magnetite         0.00     5.07      5.07    1.361e-05   1.807e-05   4.467e-06

-----------------------------Solution composition------------------------------

	Elements           Molality       Moles

	C                 6.923e-04   5.216e-05
	Ca                1.803e-04   1.359e-05
	Cat               2.371e-03   1.787e-04
	Cl                1.779e-04   1.340e-05
	Fe                4.814e-07   3.627e-08
	K                 3.009e-05   2.267e-06
	Mg                2.417e-04   1.821e-05
	N                 9.979e-06   7.519e-07
	Na                6.018e-04   4.534e-05
	S                 1.490e-03   1.122e-04

----------------------------Description of solution----------------------------

                                       pH  =   8.294      Charge balance
                                       pe  =  -7.480      Adjusted to redox equilibrium
      Specific Conductance (µS/cm,  12°C)  = 1
                          Density (g/cm³)  =   0.99967
                               Volume (L)  =   0.07539
                        Activity of water  =   1.000
                 Ionic strength (mol/kgw)  =   5.556e-03
                       Mass of water (kg)  =   7.535e-02
                 Total alkalinity (eq/kg)  =   6.912e-04
                       Total CO2 (mol/kg)  =   6.923e-04
                         Temperature (°C)  =  12.00
                           Pressure (atm)  =  0.02
                  Electrical balance (eq)  =  -5.023e-13
 Percent error, 100*(Cat-|An|)/(Cat+|An|)  =  -0.00
                               Iterations  =  34
                                  Total H  = 8.364366e+00
                                  Total O  = 4.182761e+00

----------------------------Distribution of species----------------------------

                                               Log       Log       Log    mole V
   Species          Molality    Activity  Molality  Activity     Gamma   cm³/mol

   OH-             7.425e-07   6.861e-07    -6.129    -6.164    -0.034     (0)  
   H+              5.453e-09   5.082e-09    -8.263    -8.294    -0.031      0.00
   H2O-0.01        1.188e-09   1.188e-09    -8.925    -8.925    -0.000     (0)  
   H2O             5.551e+01   9.999e-01     1.744    -0.000     0.000     18.03
C(4)          6.923e-04
   HCO3-           6.743e-04   6.251e-04    -3.171    -3.204    -0.033     (0)  
   CO2             8.832e-06   8.844e-06    -5.054    -5.053     0.001     (0)  
   CO3-2           5.731e-06   4.233e-06    -5.242    -5.373    -0.132     (0)  
   MgHCO3+         1.197e-06   1.107e-06    -5.922    -5.956    -0.034     (0)  
   CaHCO3+         7.680e-07   7.120e-07    -6.115    -6.148    -0.033     (0)  
   CaCO3           6.809e-07   6.818e-07    -6.167    -6.166     0.001     (0)  
   MgCO3           5.201e-07   5.207e-07    -6.284    -6.283     0.001     (0)  
   NaHCO3          1.946e-07   1.948e-07    -6.711    -6.710     0.001     (0)  
   FeCO3           2.890e-08   2.894e-08    -7.539    -7.538     0.001     (0)  
   NaCO3-          2.379e-08   2.201e-08    -7.624    -7.657    -0.034     (0)  
   FeHCO3+         1.926e-08   1.782e-08    -7.715    -7.749    -0.034     (0)  
Ca            1.803e-04
   Ca+2            1.573e-04   1.161e-04    -3.803    -3.935    -0.132     (0)  
   CaSO4           2.157e-05   2.160e-05    -4.666    -4.666     0.001     (0)  
   CaHCO3+         7.680e-07   7.120e-07    -6.115    -6.148    -0.033     (0)  
   CaCO3           6.809e-07   6.818e-07    -6.167    -6.166     0.001     (0)  
   CaOH+           4.099e-09   3.792e-09    -8.387    -8.421    -0.034     (0)  
   CaHSO4+         6.039e-13   5.586e-13   -12.219   -12.253    -0.034     (0)  
Cat           2.371e-03
   Cat+            2.371e-03   2.194e-03    -2.625    -2.659    -0.034     (0)  
Cl            1.779e-04
   Cl-             1.779e-04   1.644e-04    -3.750    -3.784    -0.034     (0)  
   FeCl+           6.992e-11   6.468e-11   -10.155   -10.189    -0.034     (0)  
   HCl             1.784e-13   1.786e-13   -12.749   -12.748     0.001     (0)  
   FeCl+2          1.884e-30   1.380e-30   -29.725   -29.860    -0.135     (0)  
   FeCl2+          1.685e-33   1.559e-33   -32.773   -32.807    -0.034     (0)  
   FeCl3           2.559e-38   2.563e-38   -37.592   -37.591     0.001     (0)  
Fe(2)         4.814e-07
   Fe+2            3.844e-07   2.850e-07    -6.415    -6.545    -0.130     (0)  
   FeSO4           4.179e-08   4.184e-08    -7.379    -7.378     0.001     (0)  
   FeCO3           2.890e-08   2.894e-08    -7.539    -7.538     0.001     (0)  
   FeHCO3+         1.926e-08   1.782e-08    -7.715    -7.749    -0.034     (0)  
   FeOH+           6.942e-09   6.422e-09    -8.158    -8.192    -0.034     (0)  
   FeCl+           6.992e-11   6.468e-11   -10.155   -10.189    -0.034     (0)  
   Fe(OH)2         3.293e-12   3.297e-12   -11.482   -11.482     0.001     (0)  
   Fe(OH)3-        2.280e-14   2.109e-14   -13.642   -13.676    -0.034     (0)  
   FeHSO4+         1.482e-15   1.371e-15   -14.829   -14.863    -0.034     (0)  
Fe(3)         1.581e-16
   Fe(OH)3         1.329e-16   1.330e-16   -15.877   -15.876     0.001     (0)  
   Fe(OH)4-        1.494e-17   1.382e-17   -16.826   -16.859    -0.034     (0)  
   Fe(OH)2+        1.026e-17   9.493e-18   -16.989   -17.023    -0.034     (0)  
   FeOH+2          3.331e-22   2.440e-22   -21.477   -21.613    -0.135     (0)  
   FeSO4+          3.970e-27   3.673e-27   -26.401   -26.435    -0.034     (0)  
   Fe+3            8.051e-28   4.276e-28   -27.094   -27.369    -0.275     (0)  
   Fe(SO4)2-       8.717e-29   8.064e-29   -28.060   -28.093    -0.034     (0)  
   FeCl+2          1.884e-30   1.380e-30   -29.725   -29.860    -0.135     (0)  
   FeCl2+          1.685e-33   1.559e-33   -32.773   -32.807    -0.034     (0)  
   FeHSO4+2        7.055e-35   5.167e-35   -34.152   -34.287    -0.135     (0)  
   FeCl3           2.559e-38   2.563e-38   -37.592   -37.591     0.001     (0)  
   Fe2(OH)2+4      0.000e+00   0.000e+00   -41.010   -41.551    -0.541     (0)  
   Fe3(OH)4+5      0.000e+00   0.000e+00   -54.864   -55.709    -0.845     (0)  
H(0)          3.447e-05
   H2              1.724e-05   1.726e-05    -4.764    -4.763     0.001     (0)  
K             3.009e-05
   K+              2.991e-05   2.764e-05    -4.524    -4.558    -0.034      8.30
   KSO4-           1.753e-07   1.622e-07    -6.756    -6.790    -0.034     (0)  
   KOH             1.883e-11   1.886e-11   -10.725   -10.725     0.001     (0)  
Mg            2.417e-04
   Mg+2            2.125e-04   1.574e-04    -3.673    -3.803    -0.130     (0)  
   MgSO4           2.748e-05   2.752e-05    -4.561    -4.560     0.001     (0)  
   MgHCO3+         1.197e-06   1.107e-06    -5.922    -5.956    -0.034     (0)  
   MgCO3           5.201e-07   5.207e-07    -6.284    -6.283     0.001     (0)  
   MgOH+           3.562e-08   3.295e-08    -7.448    -7.482    -0.034     (0)  
N(0)          9.979e-06
   N2              4.989e-06   4.996e-06    -5.302    -5.301     0.001     (0)  
N(3)          0.000e+00
   NO2-            0.000e+00   0.000e+00   -70.604   -70.639    -0.035     (0)  
N(5)          0.000e+00
   NO3-            0.000e+00   0.000e+00   -99.010   -99.044    -0.035     (0)  
Na            6.018e-04
   Na+             5.986e-04   5.542e-04    -3.223    -3.256    -0.034     (0)  
   NaSO4-          2.915e-06   2.697e-06    -5.535    -5.569    -0.034     (0)  
   NaHCO3          1.946e-07   1.948e-07    -6.711    -6.710     0.001     (0)  
   NaCO3-          2.379e-08   2.201e-08    -7.624    -7.657    -0.034     (0)  
   NaOH            7.194e-10   7.204e-10    -9.143    -9.142     0.001     (0)  
O(0)          0.000e+00
   O2              0.000e+00   0.000e+00   -87.331   -87.330     0.001     (0)  
S(6)          1.490e-03
   SO4-2           1.437e-03   1.058e-03    -2.842    -2.975    -0.133     (0)  
   MgSO4           2.748e-05   2.752e-05    -4.561    -4.560     0.001     (0)  
   CaSO4           2.157e-05   2.160e-05    -4.666    -4.666     0.001     (0)  
   NaSO4-          2.915e-06   2.697e-06    -5.535    -5.569    -0.034     (0)  
   KSO4-           1.753e-07   1.622e-07    -6.756    -6.790    -0.034     (0)  
   FeSO4           4.179e-08   4.184e-08    -7.379    -7.378     0.001     (0)  
   HSO4-           4.325e-10   4.001e-10    -9.364    -9.398    -0.034     (0)  
   CaHSO4+         6.039e-13   5.586e-13   -12.219   -12.253    -0.034     (0)  
   FeHSO4+         1.482e-15   1.371e-15   -14.829   -14.863    -0.034     (0)  
   FeSO4+          3.970e-27   3.673e-27   -26.401   -26.435    -0.034     (0)  
   Fe(SO4)2-       8.717e-29   8.064e-29   -28.060   -28.093    -0.034     (0)  
   FeHSO4+2        7.055e-35   5.167e-35   -34.152   -34.287    -0.135     (0)  

------------------------------Saturation indices-------------------------------

  Phase               SI** log IAP   log K(285 K,   0 atm)

  Anhydrite        -2.58     -6.91   -4.33  CaSO4
  Antarcticite    -15.60    -11.50    4.09  CaCl2:6H2O
  Aragonite        -1.04     -9.31   -8.26  CaCO3
  Bischofite      -15.76    -11.37    4.39  MgCl2:6H2O
  CO2(g)           -3.75     -5.05   -1.30  CO2
  Dolomite         -1.71    -18.48  -16.77  CaMg(CO3)2
  Fe(OH)3(a)       -7.38     -2.49    4.89  Fe(OH)3
  Fix_pH           -8.29     -8.29    0.00  H+
  Goethite         -3.46     -2.49    0.97  FeOOH
  Gypsum           -2.32     -6.91   -4.59  CaSO4:2H2O
  H2(g)            -1.67     -4.76   -3.09  H2
  H2O(g)           -1.86     -0.00    1.86  H2O
  Halite           -8.59     -7.04    1.55  NaCl
  HCl(g)          -18.97    -12.08    6.89  HCl
  Hematite         -4.59     -4.97   -0.39  Fe2O3
  Ironcarbonate    -3.44     -1.88    1.56  Fe2(CO3)(OH)2
  Ironhydroxide    -3.96     10.04   14.00  Fe(OH)2
  Kalicinite       -8.05     -7.76    0.28  KHCO3
  Lepidocrocite    -3.86     -2.49    1.37  FeOOH
  Maghemite       -11.36     -4.97    6.39  Fe2O3
  Magnetite         0.00      5.07    5.07  Fe3O4
  Melanterite      -7.14     -9.52   -2.38  FeSO4:7H2O
  N2(g)            -2.09     -5.30   -3.21  N2
  Nahcolite        -6.20     -6.46   -0.26  NaHCO3
  O2(g)           -84.55    -87.33   -2.78  O2
  Siderite         -1.35    -11.92  -10.57  FeCO3

**For a gas, SI = log10(fugacity). Fugacity = pressure * phi / 1 atm.
  For ideal gases, phi = 1.

Reaction step 5.

Using solution 1.	
Using pure phase assemblage 1.	
Using gas phase 1.	
Using kinetics 1.	

Kinetics 1.	

	Time step: 86400 seconds  (Incremented time: 432000 seconds)

	Rate name       Delta Moles Total Moles   Reactant        Coefficient

	Waterox           1.330e-05   6.755e-05   Fe+2                     -1
	                                          H2                       -1
	                                          H2O                       2
	                                          OH-                      -2

-----------------------------------Gas phase-----------------------------------

Total pressure:  0.03      atmospheres 
    Gas volume:   7.60e-02 liters
  Molar volume:   8.72e+02 liters/mole

                                                        Moles in gas
                                            ----------------------------------
Component                log P           P     Initial       Final       Delta

CO2(g)                   -3.76   1.754e-04   5.713e-07   5.697e-07  -1.561e-09
H2(g)                    -1.57   2.665e-02   6.915e-05   8.655e-05   1.740e-05

-------------------------------Phase assemblage--------------------------------

                                                      Moles in assemblage
Phase               SI  log IAP  log K(T, P)   Initial       Final       Delta

Maghemite       -11.39    -5.01      6.39    0.000e+00           0   0.000e+00
Magnetite         0.00     5.07      5.07    1.807e-05   2.251e-05   4.432e-06

-----------------------------Solution composition------------------------------

	Elements           Molality       Moles

	C                 6.923e-04   5.216e-05
	Ca                1.803e-04   1.359e-05
	Cat               2.371e-03   1.787e-04
	Cl                1.779e-04   1.340e-05
	Fe                5.161e-07   3.888e-08
	K                 3.009e-05   2.267e-06
	Mg                2.417e-04   1.821e-05
	N                 9.979e-06   7.519e-07
	Na                6.018e-04   4.534e-05
	S                 1.490e-03   1.122e-04

----------------------------Description of solution----------------------------

                                       pH  =   8.295      Charge balance
                                       pe  =  -7.530      Adjusted to redox equilibrium
      Specific Conductance (µS/cm,  12°C)  = 1
                          Density (g/cm³)  =   0.99967
                               Volume (L)  =   0.07539
                        Activity of water  =   1.000
                 Ionic strength (mol/kgw)  =   5.556e-03
                       Mass of water (kg)  =   7.535e-02
                 Total alkalinity (eq/kg)  =   6.913e-04
                       Total CO2 (mol/kg)  =   6.923e-04
                         Temperature (°C)  =  12.00
                           Pressure (atm)  =  0.03
                  Electrical balance (eq)  =  -5.233e-13
 Percent error, 100*(Cat-|An|)/(Cat+|An|)  =  -0.00
                               Iterations  =  32
                                  Total H  = 8.364332e+00
                                  Total O  = 4.182743e+00

----------------------------Distribution of species----------------------------

                                               Log       Log       Log    mole V
   Species          Molality    Activity  Molality  Activity     Gamma   cm³/mol

   OH-             7.446e-07   6.880e-07    -6.128    -6.162    -0.034     (0)  
   H+              5.438e-09   5.068e-09    -8.265    -8.295    -0.031      0.00
   H2O-0.01        1.189e-09   1.189e-09    -8.925    -8.925    -0.000     (0)  
   H2O             5.551e+01   9.999e-01     1.744    -0.000     0.000     18.03
C(4)          6.923e-04
   HCO3-           6.743e-04   6.251e-04    -3.171    -3.204    -0.033     (0)  
   CO2             8.808e-06   8.819e-06    -5.055    -5.055     0.001     (0)  
   CO3-2           5.747e-06   4.245e-06    -5.241    -5.372    -0.132     (0)  
   MgHCO3+         1.197e-06   1.107e-06    -5.922    -5.956    -0.034     (0)  
   CaHCO3+         7.680e-07   7.120e-07    -6.115    -6.148    -0.033     (0)  
   CaCO3           6.828e-07   6.837e-07    -6.166    -6.165     0.001     (0)  
   MgCO3           5.215e-07   5.222e-07    -6.283    -6.282     0.001     (0)  
   NaHCO3          1.946e-07   1.948e-07    -6.711    -6.710     0.001     (0)  
   FeCO3           3.106e-08   3.110e-08    -7.508    -7.507     0.001     (0)  
   NaCO3-          2.385e-08   2.207e-08    -7.622    -7.656    -0.034     (0)  
   FeHCO3+         2.064e-08   1.910e-08    -7.685    -7.719    -0.034     (0)  
Ca            1.803e-04
   Ca+2            1.573e-04   1.161e-04    -3.803    -3.935    -0.132     (0)  
   CaSO4           2.157e-05   2.160e-05    -4.666    -4.666     0.001     (0)  
   CaHCO3+         7.680e-07   7.120e-07    -6.115    -6.148    -0.033     (0)  
   CaCO3           6.828e-07   6.837e-07    -6.166    -6.165     0.001     (0)  
   CaOH+           4.110e-09   3.802e-09    -8.386    -8.420    -0.034     (0)  
   CaHSO4+         6.022e-13   5.571e-13   -12.220   -12.254    -0.034     (0)  
Cat           2.371e-03
   Cat+            2.371e-03   2.194e-03    -2.625    -2.659    -0.034     (0)  
Cl            1.779e-04
   Cl-             1.779e-04   1.644e-04    -3.750    -3.784    -0.034     (0)  
   FeCl+           7.493e-11   6.932e-11   -10.125   -10.159    -0.034     (0)  
   HCl             1.779e-13   1.781e-13   -12.750   -12.749     0.001     (0)  
   FeCl+2          1.800e-30   1.318e-30   -29.745   -29.880    -0.135     (0)  
   FeCl2+          1.610e-33   1.489e-33   -32.793   -32.827    -0.034     (0)  
   FeCl3           2.445e-38   2.448e-38   -37.612   -37.611     0.001     (0)  
Fe(2)         5.161e-07
   Fe+2            4.120e-07   3.055e-07    -6.385    -6.515    -0.130     (0)  
   FeSO4           4.478e-08   4.484e-08    -7.349    -7.348     0.001     (0)  
   FeCO3           3.106e-08   3.110e-08    -7.508    -7.507     0.001     (0)  
   FeHCO3+         2.064e-08   1.910e-08    -7.685    -7.719    -0.034     (0)  
   FeOH+           7.461e-09   6.902e-09    -8.127    -8.161    -0.034     (0)  
   FeCl+           7.493e-11   6.932e-11   -10.125   -10.159    -0.034     (0)  
   Fe(OH)2         3.549e-12   3.553e-12   -11.450   -11.449     0.001     (0)  
   Fe(OH)3-        2.463e-14   2.279e-14   -13.608   -13.642    -0.034     (0)  
   FeHSO4+         1.584e-15   1.466e-15   -14.800   -14.834    -0.034     (0)  
Fe(3)         1.523e-16
   Fe(OH)3         1.280e-16   1.281e-16   -15.893   -15.892     0.001     (0)  
   Fe(OH)4-        1.443e-17   1.335e-17   -16.841   -16.874    -0.034     (0)  
   Fe(OH)2+        9.857e-18   9.119e-18   -17.006   -17.040    -0.034     (0)  
   FeOH+2          3.191e-22   2.337e-22   -21.496   -21.631    -0.135     (0)  
   FeSO4+          3.793e-27   3.509e-27   -26.421   -26.455    -0.034     (0)  
   Fe+3            7.691e-28   4.085e-28   -27.114   -27.389    -0.275     (0)  
   Fe(SO4)2-       8.327e-29   7.704e-29   -28.080   -28.113    -0.034     (0)  
   FeCl+2          1.800e-30   1.318e-30   -29.745   -29.880    -0.135     (0)  
   FeCl2+          1.610e-33   1.489e-33   -32.793   -32.827    -0.034     (0)  
   FeHSO4+2        6.721e-35   4.922e-35   -34.173   -34.308    -0.135     (0)  
   FeCl3           2.445e-38   2.448e-38   -37.612   -37.611     0.001     (0)  
   Fe2(OH)2+4      0.000e+00   0.000e+00   -41.048   -41.589    -0.541     (0)  
   Fe3(OH)4+5      0.000e+00   0.000e+00   -54.919   -55.764    -0.845     (0)  
H(0)          4.315e-05
   H2              2.157e-05   2.160e-05    -4.666    -4.666     0.001     (0)  
K             3.009e-05
   K+              2.991e-05   2.764e-05    -4.524    -4.558    -0.034      8.30
   KSO4-           1.753e-07   1.622e-07    -6.756    -6.790    -0.034     (0)  
   KOH             1.889e-11   1.891e-11   -10.724   -10.723     0.001     (0)  
Mg            2.417e-04
   Mg+2            2.125e-04   1.574e-04    -3.673    -3.803    -0.130     (0)  
   MgSO4           2.748e-05   2.752e-05    -4.561    -4.560     0.001     (0)  
   MgHCO3+         1.197e-06   1.107e-06    -5.922    -5.956    -0.034     (0)  
   MgCO3           5.215e-07   5.222e-07    -6.283    -6.282     0.001     (0)  
   MgOH+           3.572e-08   3.304e-08    -7.447    -7.481    -0.034     (0)  
N(0)          9.979e-06
   N2              4.989e-06   4.996e-06    -5.302    -5.301     0.001     (0)  
N(3)          0.000e+00
   NO2-            0.000e+00   0.000e+00   -70.749   -70.784    -0.035     (0)  
N(5)          0.000e+00
   NO3-            0.000e+00   0.000e+00   -99.252   -99.287    -0.035     (0)  
Na            6.018e-04
   Na+             5.986e-04   5.542e-04    -3.223    -3.256    -0.034     (0)  
   NaSO4-          2.915e-06   2.697e-06    -5.535    -5.569    -0.034     (0)  
   NaHCO3          1.946e-07   1.948e-07    -6.711    -6.710     0.001     (0)  
   NaCO3-          2.385e-08   2.207e-08    -7.622    -7.656    -0.034     (0)  
   NaOH            7.214e-10   7.224e-10    -9.142    -9.141     0.001     (0)  
O(0)          0.000e+00
   O2              0.000e+00   0.000e+00   -87.526   -87.525     0.001     (0)  
S(6)          1.490e-03
   SO4-2           1.437e-03   1.058e-03    -2.842    -2.975    -0.133     (0)  
   MgSO4           2.748e-05   2.752e-05    -4.561    -4.560     0.001     (0)  
   CaSO4           2.157e-05   2.160e-05    -4.666    -4.666     0.001     (0)  
   NaSO4-          2.915e-06   2.697e-06    -5.535    -5.569    -0.034     (0)  
   KSO4-           1.753e-07   1.622e-07    -6.756    -6.790    -0.034     (0)  
   FeSO4           4.478e-08   4.484e-08    -7.349    -7.348     0.001     (0)  
   HSO4-           4.313e-10   3.990e-10    -9.365    -9.399    -0.034     (0)  
   CaHSO4+         6.022e-13   5.571e-13   -12.220   -12.254    -0.034     (0)  
   FeHSO4+         1.584e-15   1.466e-15   -14.800   -14.834    -0.034     (0)  
   FeSO4+          3.793e-27   3.509e-27   -26.421   -26.455    -0.034     (0)  
   Fe(SO4)2-       8.327e-29   7.704e-29   -28.080   -28.113    -0.034     (0)  
   FeHSO4+2        6.721e-35   4.922e-35   -34.173   -34.308    -0.135     (0)  

------------------------------Saturation indices-------------------------------

  Phase               SI** log IAP   log K(285 K,   0 atm)

  Anhydrite        -2.58     -6.91   -4.33  CaSO4
  Antarcticite    -15.60    -11.50    4.09  CaCl2:6H2O
  Aragonite        -1.04     -9.31   -8.26  CaCO3
  Bischofite      -15.76    -11.37    4.39  MgCl2:6H2O
  CO2(g)           -3.76     -5.05   -1.30  CO2
  Dolomite         -1.71    -18.48  -16.77  CaMg(CO3)2
  Fe(OH)3(a)       -7.39     -2.50    4.89  Fe(OH)3
  Fix_pH           -8.30     -8.30    0.00  H+
  Goethite         -3.48     -2.50    0.97  FeOOH
  Gypsum           -2.32     -6.91   -4.59  CaSO4:2H2O
  H2(g)            -1.57     -4.67   -3.09  H2
  H2O(g)           -1.86     -0.00    1.86  H2O
  Halite           -8.59     -7.04    1.55  NaCl
  HCl(g)          -18.97    -12.08    6.89  HCl
  Hematite         -4.62     -5.01   -0.39  Fe2O3
  Ironcarbonate    -3.37     -1.81    1.56  Fe2(CO3)(OH)2
  Ironhydroxide    -3.92     10.08   14.00  Fe(OH)2
  Kalicinite       -8.05     -7.76    0.28  KHCO3
  Lepidocrocite    -3.87     -2.50    1.37  FeOOH
  Maghemite       -11.39     -5.01    6.39  Fe2O3
  Magnetite         0.00      5.07    5.07  Fe3O4
  Melanterite      -7.11     -9.49   -2.38  FeSO4:7H2O
  N2(g)            -2.09     -5.30   -3.21  N2
  Nahcolite        -6.20     -6.46   -0.26  NaHCO3
  O2(g)           -84.74    -87.53   -2.78  O2
  Siderite         -1.32    -11.89  -10.57  FeCO3

**For a gas, SI = log10(fugacity). Fugacity = pressure * phi / 1 atm.
  For ideal gases, phi = 1.

Reaction step 6.

Using solution 1.	
Using pure phase assemblage 1.	
Using gas phase 1.	
Using kinetics 1.	

Kinetics 1.	

	Time step: 86400 seconds  (Incremented time: 518400 seconds)

	Rate name       Delta Moles Total Moles   Reactant        Coefficient

	Waterox           1.319e-05   8.075e-05   Fe+2                     -1
	                                          H2                       -1
	                                          H2O                       2
	                                          OH-                      -2

-----------------------------------Gas phase-----------------------------------

Total pressure:  0.03      atmospheres 
    Gas volume:   7.60e-02 liters
  Molar volume:   7.28e+02 liters/mole

                                                        Moles in gas
                                            ----------------------------------
Component                log P           P     Initial       Final       Delta

CO2(g)                   -3.76   1.750e-04   5.697e-07   5.684e-07  -1.338e-09
H2(g)                    -1.50   3.196e-02   8.655e-05   1.038e-04   1.726e-05

-------------------------------Phase assemblage--------------------------------

                                                      Moles in assemblage
Phase               SI  log IAP  log K(T, P)   Initial       Final       Delta

Maghemite       -11.42    -5.03      6.39    0.000e+00           0   0.000e+00
Magnetite         0.00     5.07      5.07    2.251e-05   2.690e-05   4.397e-06

-----------------------------Solution composition------------------------------

	Elements           Molality       Moles

	C                 6.923e-04   5.216e-05
	Ca                1.803e-04   1.359e-05
	Cat               2.371e-03   1.787e-04
	Cl                1.779e-04   1.340e-05
	Fe                5.458e-07   4.112e-08
	K                 3.009e-05   2.267e-06
	Mg                2.417e-04   1.821e-05
	N                 9.979e-06   7.519e-07
	Na                6.018e-04   4.534e-05
	S                 1.490e-03   1.122e-04

----------------------------Description of solution----------------------------

                                       pH  =   8.296      Charge balance
                                       pe  =  -7.571      Adjusted to redox equilibrium
      Specific Conductance (µS/cm,  12°C)  = 1
                          Density (g/cm³)  =   0.99967
                               Volume (L)  =   0.07539
                        Activity of water  =   1.000
                 Ionic strength (mol/kgw)  =   5.556e-03
                       Mass of water (kg)  =   7.535e-02
                 Total alkalinity (eq/kg)  =   6.914e-04
                       Total CO2 (mol/kg)  =   6.923e-04
                         Temperature (°C)  =  12.00
                           Pressure (atm)  =  0.03
                  Electrical balance (eq)  =  -1.493e-12
 Percent error, 100*(Cat-|An|)/(Cat+|An|)  =  -0.00
                               Iterations  =  32
                                  Total H  = 8.364297e+00
                                  Total O  = 4.182726e+00

----------------------------Distribution of species----------------------------

                                               Log       Log       Log    mole V
   Species          Molality    Activity  Molality  Activity     Gamma   cm³/mol

   OH-             7.463e-07   6.897e-07    -6.127    -6.161    -0.034     (0)  
   H+              5.425e-09   5.056e-09    -8.266    -8.296    -0.031      0.00
   H2O-0.01        1.190e-09   1.190e-09    -8.924    -8.924    -0.000     (0)  
   H2O             5.551e+01   9.999e-01     1.744    -0.000     0.000     18.03
C(4)          6.923e-04
   HCO3-           6.743e-04   6.252e-04    -3.171    -3.204    -0.033     (0)  
   CO2             8.787e-06   8.799e-06    -5.056    -5.056     0.001     (0)  
   CO3-2           5.761e-06   4.255e-06    -5.240    -5.371    -0.132     (0)  
   MgHCO3+         1.197e-06   1.107e-06    -5.922    -5.956    -0.034     (0)  
   CaHCO3+         7.680e-07   7.120e-07    -6.115    -6.148    -0.033     (0)  
   CaCO3           6.845e-07   6.854e-07    -6.165    -6.164     0.001     (0)  
   MgCO3           5.228e-07   5.235e-07    -6.282    -6.281     0.001     (0)  
   NaHCO3          1.946e-07   1.948e-07    -6.711    -6.710     0.001     (0)  
   FeCO3           3.293e-08   3.297e-08    -7.482    -7.482     0.001     (0)  
   NaCO3-          2.391e-08   2.212e-08    -7.621    -7.655    -0.034     (0)  
   FeHCO3+         2.183e-08   2.019e-08    -7.661    -7.695    -0.034     (0)  
Ca            1.803e-04
   Ca+2            1.573e-04   1.161e-04    -3.803    -3.935    -0.132     (0)  
   CaSO4           2.157e-05   2.160e-05    -4.666    -4.666     0.001     (0)  
   CaHCO3+         7.680e-07   7.120e-07    -6.115    -6.148    -0.033     (0)  
   CaCO3           6.845e-07   6.854e-07    -6.165    -6.164     0.001     (0)  
   CaOH+           4.120e-09   3.811e-09    -8.385    -8.419    -0.034     (0)  
   CaHSO4+         6.007e-13   5.558e-13   -12.221   -12.255    -0.034     (0)  
Cat           2.371e-03
   Cat+            2.371e-03   2.194e-03    -2.625    -2.659    -0.034     (0)  
Cl            1.779e-04
   Cl-             1.779e-04   1.644e-04    -3.750    -3.784    -0.034     (0)  
   FeCl+           7.924e-11   7.331e-11   -10.101   -10.135    -0.034     (0)  
   HCl             1.775e-13   1.777e-13   -12.751   -12.750     0.001     (0)  
   FeCl+2          1.733e-30   1.270e-30   -29.761   -29.896    -0.135     (0)  
   FeCl2+          1.551e-33   1.434e-33   -32.810   -32.843    -0.034     (0)  
   FeCl3           2.355e-38   2.358e-38   -37.628   -37.627     0.001     (0)  
Fe(2)         5.458e-07
   Fe+2            4.357e-07   3.230e-07    -6.361    -6.491    -0.130     (0)  
   FeSO4           4.736e-08   4.742e-08    -7.325    -7.324     0.001     (0)  
   FeCO3           3.293e-08   3.297e-08    -7.482    -7.482     0.001     (0)  
   FeHCO3+         2.183e-08   2.019e-08    -7.661    -7.695    -0.034     (0)  
   FeOH+           7.908e-09   7.316e-09    -8.102    -8.136    -0.034     (0)  
   FeCl+           7.924e-11   7.331e-11   -10.101   -10.135    -0.034     (0)  
   Fe(OH)2         3.771e-12   3.775e-12   -11.424   -11.423     0.001     (0)  
   Fe(OH)3-        2.624e-14   2.427e-14   -13.581   -13.615    -0.034     (0)  
   FeHSO4+         1.671e-15   1.546e-15   -14.777   -14.811    -0.034     (0)  
Fe(3)         1.477e-16
   Fe(OH)3         1.242e-16   1.243e-16   -15.906   -15.905     0.001     (0)  
   Fe(OH)4-        1.404e-17   1.298e-17   -16.853   -16.887    -0.034     (0)  
   Fe(OH)2+        9.540e-18   8.825e-18   -17.020   -17.054    -0.034     (0)  
   FeOH+2          3.081e-22   2.257e-22   -21.511   -21.646    -0.135     (0)  
   FeSO4+          3.653e-27   3.380e-27   -26.437   -26.471    -0.034     (0)  
   Fe+3            7.409e-28   3.935e-28   -27.130   -27.405    -0.275     (0)  
   Fe(SO4)2-       8.021e-29   7.420e-29   -28.096   -28.130    -0.034     (0)  
   FeCl+2          1.733e-30   1.270e-30   -29.761   -29.896    -0.135     (0)  
   FeCl2+          1.551e-33   1.434e-33   -32.810   -32.843    -0.034     (0)  
   FeHSO4+2        6.458e-35   4.730e-35   -34.190   -34.325    -0.135     (0)  
   FeCl3           2.355e-38   2.358e-38   -37.628   -37.627     0.001     (0)  
   Fe2(OH)2+4      0.000e+00   0.000e+00   -41.078   -41.619    -0.541     (0)  
   Fe3(OH)4+5      0.000e+00   0.000e+00   -54.963   -55.809    -0.845     (0)  
H(0)          5.175e-05
   H2              2.588e-05   2.591e-05    -4.587    -4.587     0.001     (0)  
K             3.009e-05
   K+              2.991e-05   2.764e-05    -4.524    -4.558    -0.034      8.30
   KSO4-           1.753e-07   1.622e-07    -6.756    -6.790    -0.034     (0)  
   KOH             1.893e-11   1.896e-11   -10.723   -10.722     0.001     (0)  
Mg            2.417e-04
   Mg+2            2.125e-04   1.574e-04    -3.673    -3.803    -0.130     (0)  
   MgSO4           2.748e-05   2.752e-05    -4.561    -4.560     0.001     (0)  
   MgHCO3+         1.197e-06   1.107e-06    -5.922    -5.956    -0.034     (0)  
   MgCO3           5.228e-07   5.235e-07    -6.282    -6.281     0.001     (0)  
   MgOH+           3.580e-08   3.312e-08    -7.446    -7.480    -0.034     (0)  
N(0)          9.979e-06
   N2              4.989e-06   4.996e-06    -5.302    -5.301     0.001     (0)  
N(3)          0.000e+00
   NO2-            0.000e+00   0.000e+00   -70.867   -70.902    -0.035     (0)  
N(5)          0.000e+00
   NO3-            0.000e+00   0.000e+00   -99.449   -99.483    -0.035     (0)  
Na            6.018e-04
   Na+             5.986e-04   5.542e-04    -3.223    -3.256    -0.034     (0)  
   NaSO4-          2.915e-06   2.697e-06    -5.535    -5.569    -0.034     (0)  
   NaHCO3          1.946e-07   1.948e-07    -6.711    -6.710     0.001     (0)  
   NaCO3-          2.391e-08   2.212e-08    -7.621    -7.655    -0.034     (0)  
   NaOH            7.232e-10   7.241e-10    -9.141    -9.140     0.001     (0)  
O(0)          0.000e+00
   O2              0.000e+00   0.000e+00   -87.684   -87.683     0.001     (0)  
S(6)          1.490e-03
   SO4-2           1.437e-03   1.058e-03    -2.842    -2.975    -0.133     (0)  
   MgSO4           2.748e-05   2.752e-05    -4.561    -4.560     0.001     (0)  
   CaSO4           2.157e-05   2.160e-05    -4.666    -4.666     0.001     (0)  
   NaSO4-          2.915e-06   2.697e-06    -5.535    -5.569    -0.034     (0)  
   KSO4-           1.753e-07   1.622e-07    -6.756    -6.790    -0.034     (0)  
   FeSO4           4.736e-08   4.742e-08    -7.325    -7.324     0.001     (0)  
   HSO4-           4.303e-10   3.981e-10    -9.366    -9.400    -0.034     (0)  
   CaHSO4+         6.007e-13   5.558e-13   -12.221   -12.255    -0.034     (0)  
   FeHSO4+         1.671e-15   1.546e-15   -14.777   -14.811    -0.034     (0)  
   FeSO4+          3.653e-27   3.380e-27   -26.437   -26.471    -0.034     (0)  
   Fe(SO4)2-       8.021e-29   7.420e-29   -28.096   -28.130    -0.034     (0)  
   FeHSO4+2        6.458e-35   4.730e-35   -34.190   -34.325    -0.135     (0)  

------------------------------Saturation indices-------------------------------

  Phase               SI** log IAP   log K(285 K,   0 atm)

  Anhydrite        -2.58     -6.91   -4.33  CaSO4
  Antarcticite    -15.60    -11.50    4.09  CaCl2:6H2O
  Aragonite        -1.04     -9.31   -8.26  CaCO3
  Bischofite      -15.76    -11.37    4.39  MgCl2:6H2O
  CO2(g)           -3.76     -5.06   -1.30  CO2
  Dolomite         -1.71    -18.48  -16.77  CaMg(CO3)2
  Fe(OH)3(a)       -7.41     -2.52    4.89  Fe(OH)3
  Fix_pH           -8.30     -8.30    0.00  H+
  Goethite         -3.49     -2.52    0.97  FeOOH
  Gypsum           -2.32     -6.91   -4.59  CaSO4:2H2O
  H2(g)            -1.50     -4.59   -3.09  H2
  H2O(g)           -1.86     -0.00    1.86  H2O
  Halite           -8.59     -7.04    1.55  NaCl
  HCl(g)          -18.97    -12.08    6.89  HCl
  Hematite         -4.65     -5.03   -0.39  Fe2O3
  Ironcarbonate    -3.32     -1.76    1.56  Fe2(CO3)(OH)2
  Ironhydroxide    -3.90     10.10   14.00  Fe(OH)2
  Kalicinite       -8.05     -7.76    0.28  KHCO3
  Lepidocrocite    -3.89     -2.52    1.37  FeOOH
  Maghemite       -11.42     -5.03    6.39  Fe2O3
  Magnetite         0.00      5.07    5.07  Fe3O4
  Melanterite      -7.09     -9.47   -2.38  FeSO4:7H2O
  N2(g)            -2.09     -5.30   -3.21  N2
  Nahcolite        -6.20     -6.46   -0.26  NaHCO3
  O2(g)           -84.90    -87.68   -2.78  O2
  Siderite         -1.29    -11.86  -10.57  FeCO3

**For a gas, SI = log10(fugacity). Fugacity = pressure * phi / 1 atm.
  For ideal gases, phi = 1.

Reaction step 7.

Using solution 1.	
Using pure phase assemblage 1.	
Using gas phase 1.	
Using kinetics 1.	

Kinetics 1.	

	Time step: 86400 seconds  (Incremented time: 604800 seconds)

	Rate name       Delta Moles Total Moles   Reactant        Coefficient

	Waterox           1.309e-05   9.383e-05   Fe+2                     -1
[...]
Using pure phase assemblage 1.	
Using gas phase 1.	
Using kinetics 1.	

Kinetics 1.	

	Time step: 86400 seconds  (Incremented time: 8.7264e+06 seconds)

	Rate name       Delta Moles Total Moles   Reactant        Coefficient

	Waterox           6.213e-06   9.570e-04   Fe+2                     -1
	                                          H2                       -1
	                                          H2O                       2
	                                          OH-                      -2

-----------------------------------Gas phase-----------------------------------

Total pressure:  0.39      atmospheres 
    Gas volume:   7.60e-02 liters
  Molar volume:   6.07e+01 liters/mole

                                                        Moles in gas
                                            ----------------------------------
Component                log P           P     Initial       Final       Delta

CO2(g)                   -3.78   1.669e-04   5.423e-07   5.422e-07  -9.061e-11
H2(g)                    -0.41   3.851e-01   1.243e-03   1.251e-03   8.132e-06

-------------------------------Phase assemblage--------------------------------

                                                      Moles in assemblage
Phase               SI  log IAP  log K(T, P)   Initial       Final       Delta

Maghemite       -11.78    -5.39      6.39    0.000e+00           0   0.000e+00
Magnetite         0.00     5.07      5.07    3.169e-04   3.190e-04   2.071e-06

-----------------------------Solution composition------------------------------

	Elements           Molality       Moles

	C                 6.929e-04   5.219e-05
	Ca                1.804e-04   1.359e-05
	Cat               2.372e-03   1.787e-04
	Cl                1.779e-04   1.340e-05
	Fe                1.141e-06   8.595e-08
	K                 3.009e-05   2.267e-06
	Mg                2.418e-04   1.821e-05
	N                 9.982e-06   7.519e-07
	Na                6.019e-04   4.534e-05
	S                 1.490e-03   1.122e-04

----------------------------Description of solution----------------------------

                                       pH  =   8.317      Charge balance
                                       pe  =  -8.132      Adjusted to redox equilibrium
      Specific Conductance (µS/cm,  12°C)  = 1
                          Density (g/cm³)  =   0.99969
                               Volume (L)  =   0.07536
                        Activity of water  =   1.000
                 Ionic strength (mol/kgw)  =   5.559e-03
                       Mass of water (kg)  =   7.532e-02
                 Total alkalinity (eq/kg)  =   6.928e-04
                       Total CO2 (mol/kg)  =   6.929e-04
                         Temperature (°C)  =  12.00
                           Pressure (atm)  =  0.39
                  Electrical balance (eq)  =  -1.261e-11
 Percent error, 100*(Cat-|An|)/(Cat+|An|)  =  -0.00
                               Iterations  =  25
                                  Total H  = 8.362003e+00
                                  Total O  = 4.181558e+00

----------------------------Distribution of species----------------------------

                                               Log       Log       Log    mole V
   Species          Molality    Activity  Molality  Activity     Gamma   cm³/mol

   OH-             7.830e-07   7.235e-07    -6.106    -6.141    -0.034     (0)  
   H+              5.171e-09   4.819e-09    -8.286    -8.317    -0.031      0.00
   H2O-0.01        1.206e-09   1.206e-09    -8.919    -8.919    -0.000     (0)  
   H2O             5.551e+01   9.999e-01     1.744    -0.000     0.000     18.03
C(4)          6.929e-04
   HCO3-           6.749e-04   6.256e-04    -3.171    -3.204    -0.033     (0)  
   CO2             8.382e-06   8.393e-06    -5.077    -5.076     0.001     (0)  
   CO3-2           6.049e-06   4.467e-06    -5.218    -5.350    -0.132     (0)  
   MgHCO3+         1.198e-06   1.108e-06    -5.922    -5.955    -0.034     (0)  
   CaHCO3+         7.686e-07   7.126e-07    -6.114    -6.147    -0.033     (0)  
   CaCO3           7.187e-07   7.196e-07    -6.143    -6.143     0.001     (0)  
   MgCO3           5.489e-07   5.497e-07    -6.260    -6.260     0.001     (0)  
   NaHCO3          1.948e-07   1.950e-07    -6.710    -6.710     0.001     (0)  
   FeCO3           7.201e-08   7.210e-08    -7.143    -7.142     0.001     (0)  
   FeHCO3+         4.550e-08   4.209e-08    -7.342    -7.376    -0.034     (0)  
   NaCO3-          2.511e-08   2.323e-08    -7.600    -7.634    -0.034     (0)  
Ca            1.804e-04
   Ca+2            1.573e-04   1.161e-04    -3.803    -3.935    -0.132     (0)  
   CaSO4           2.157e-05   2.160e-05    -4.666    -4.666     0.001     (0)  
   CaHCO3+         7.686e-07   7.126e-07    -6.114    -6.147    -0.033     (0)  
   CaCO3           7.187e-07   7.196e-07    -6.143    -6.143     0.001     (0)  
   CaOH+           4.322e-09   3.998e-09    -8.364    -8.398    -0.034     (0)  
   CaHSO4+         5.727e-13   5.298e-13   -12.242   -12.276    -0.034     (0)  
Cat           2.372e-03
   Cat+            2.372e-03   2.194e-03    -2.625    -2.659    -0.034     (0)  
Cl            1.779e-04
   Cl-             1.779e-04   1.644e-04    -3.750    -3.784    -0.034     (0)  
   FeCl+           1.651e-10   1.527e-10    -9.782    -9.816    -0.034     (0)  
   HCl             1.692e-13   1.694e-13   -12.772   -12.771     0.001     (0)  
   FeCl+2          9.918e-31   7.263e-31   -30.004   -30.139    -0.135     (0)  
   FeCl2+          8.873e-34   8.209e-34   -33.052   -33.086    -0.034     (0)  
   FeCl3           1.348e-38   1.350e-38   -37.870   -37.870     0.001     (0)  
Fe(2)         1.141e-06
   Fe+2            9.075e-07   6.728e-07    -6.042    -6.172    -0.130     (0)  
   FeSO4           9.865e-08   9.877e-08    -7.006    -7.005     0.001     (0)  
   FeCO3           7.201e-08   7.210e-08    -7.143    -7.142     0.001     (0)  
   FeHCO3+         4.550e-08   4.209e-08    -7.342    -7.376    -0.034     (0)  
   FeOH+           1.728e-08   1.599e-08    -7.762    -7.796    -0.034     (0)  
   FeCl+           1.651e-10   1.527e-10    -9.782    -9.816    -0.034     (0)  
   Fe(OH)2         8.643e-12   8.654e-12   -11.063   -11.063     0.001     (0)  
   Fe(OH)3-        6.310e-14   5.837e-14   -13.200   -13.234    -0.034     (0)  
   FeHSO4+         3.318e-15   3.070e-15   -14.479   -14.513    -0.034     (0)  
Fe(3)         9.774e-17
   Fe(OH)3         8.201e-17   8.211e-17   -16.086   -16.086     0.001     (0)  
   Fe(OH)4-        9.726e-18   8.997e-18   -17.012   -17.046    -0.034     (0)  
   Fe(OH)2+        6.006e-18   5.556e-18   -17.221   -17.255    -0.034     (0)  
   FeOH+2          1.849e-22   1.354e-22   -21.733   -21.868    -0.135     (0)  
   FeSO4+          2.090e-27   1.933e-27   -26.680   -26.714    -0.034     (0)  
   Fe+3            4.238e-28   2.251e-28   -27.373   -27.648    -0.275     (0)  
   Fe(SO4)2-       4.589e-29   4.246e-29   -28.338   -28.372    -0.034     (0)  
   FeCl+2          9.918e-31   7.263e-31   -30.004   -30.139    -0.135     (0)  
   FeCl2+          8.873e-34   8.209e-34   -33.052   -33.086    -0.034     (0)  
   FeHSO4+2        3.522e-35   2.579e-35   -34.453   -34.589    -0.135     (0)  
   FeCl3           1.348e-38   1.350e-38   -37.870   -37.870     0.001     (0)  
   Fe2(OH)2+4      0.000e+00   0.000e+00   -41.522   -42.063    -0.541     (0)  
   Fe3(OH)4+5      0.000e+00   0.000e+00   -55.608   -56.453    -0.845     (0)  
H(0)          6.234e-04
   H2              3.117e-04   3.121e-04    -3.506    -3.506     0.001     (0)  
K             3.009e-05
   K+              2.992e-05   2.765e-05    -4.524    -4.558    -0.034      8.30
   KSO4-           1.754e-07   1.622e-07    -6.756    -6.790    -0.034     (0)  
   KOH             1.987e-11   1.989e-11   -10.702   -10.701     0.001     (0)  
Mg            2.418e-04
   Mg+2            2.125e-04   1.574e-04    -3.673    -3.803    -0.130     (0)  
   MgSO4           2.749e-05   2.753e-05    -4.561    -4.560     0.001     (0)  
   MgHCO3+         1.198e-06   1.108e-06    -5.922    -5.955    -0.034     (0)  
   MgCO3           5.489e-07   5.497e-07    -6.260    -6.260     0.001     (0)  
   MgOH+           3.757e-08   3.475e-08    -7.425    -7.459    -0.034     (0)  
N(0)          9.982e-06
   N2              4.991e-06   4.997e-06    -5.302    -5.301     0.001     (0)  
N(3)          0.000e+00
   NO2-            0.000e+00   0.000e+00   -72.467   -72.502    -0.035     (0)  
N(5)          0.000e+00
   NO3-            0.000e+00   0.000e+00  -102.130  -102.165    -0.035     (0)  
Na            6.019e-04
   Na+             5.988e-04   5.543e-04    -3.223    -3.256    -0.034     (0)  
   NaSO4-          2.916e-06   2.698e-06    -5.535    -5.569    -0.034     (0)  
   NaHCO3          1.948e-07   1.950e-07    -6.710    -6.710     0.001     (0)  
   NaCO3-          2.511e-08   2.323e-08    -7.600    -7.634    -0.034     (0)  
   NaOH            7.589e-10   7.599e-10    -9.120    -9.119     0.001     (0)  
O(0)          0.000e+00
   O2              0.000e+00   0.000e+00   -89.845   -89.845     0.001     (0)  
S(6)          1.490e-03
   SO4-2           1.438e-03   1.058e-03    -2.842    -2.975    -0.133     (0)  
   MgSO4           2.749e-05   2.753e-05    -4.561    -4.560     0.001     (0)  
   CaSO4           2.157e-05   2.160e-05    -4.666    -4.666     0.001     (0)  
   NaSO4-          2.916e-06   2.698e-06    -5.535    -5.569    -0.034     (0)  
   KSO4-           1.754e-07   1.622e-07    -6.756    -6.790    -0.034     (0)  
   FeSO4           9.865e-08   9.877e-08    -7.006    -7.005     0.001     (0)  
   HSO4-           4.102e-10   3.795e-10    -9.387    -9.421    -0.034     (0)  
   CaHSO4+         5.727e-13   5.298e-13   -12.242   -12.276    -0.034     (0)  
   FeHSO4+         3.318e-15   3.070e-15   -14.479   -14.513    -0.034     (0)  
   FeSO4+          2.090e-27   1.933e-27   -26.680   -26.714    -0.034     (0)  
   Fe(SO4)2-       4.589e-29   4.246e-29   -28.338   -28.372    -0.034     (0)  
   FeHSO4+2        3.522e-35   2.579e-35   -34.453   -34.589    -0.135     (0)  

------------------------------Saturation indices-------------------------------

  Phase               SI** log IAP   log K(285 K,   0 atm)

  Anhydrite        -2.58     -6.91   -4.33  CaSO4
  Antarcticite    -15.60    -11.50    4.09  CaCl2:6H2O
  Aragonite        -1.02     -9.29   -8.26  CaCO3
  Bischofite      -15.76    -11.37    4.39  MgCl2:6H2O
  CO2(g)           -3.78     -5.08   -1.30  CO2
  Dolomite         -1.66    -18.44  -16.77  CaMg(CO3)2
  Fe(OH)3(a)       -7.59     -2.70    4.89  Fe(OH)3
  Fix_pH           -8.32     -8.32    0.00  H+
  Goethite         -3.67     -2.70    0.97  FeOOH
  Gypsum           -2.32     -6.91   -4.59  CaSO4:2H2O
  H2(g)            -0.41     -3.51   -3.09  H2
  H2O(g)           -1.86     -0.00    1.86  H2O
  Halite           -8.59     -7.04    1.55  NaCl
  HCl(g)          -18.99    -12.10    6.89  HCl
  Hematite         -5.01     -5.39   -0.39  Fe2O3
  Ironcarbonate    -2.62     -1.06    1.56  Fe2(CO3)(OH)2
  Ironhydroxide    -3.54     10.46   14.00  Fe(OH)2
  Kalicinite       -8.05     -7.76    0.28  KHCO3
  Lepidocrocite    -4.07     -2.70    1.37  FeOOH
  Maghemite       -11.78     -5.39    6.39  Fe2O3
  Magnetite         0.00      5.07    5.07  Fe3O4
  Melanterite      -6.77     -9.15   -2.38  FeSO4:7H2O
  N2(g)            -2.09     -5.30   -3.21  N2
  Nahcolite        -6.20     -6.46   -0.26  NaHCO3
  O2(g)           -87.06    -89.84   -2.78  O2
  Siderite         -0.95    -11.52  -10.57  FeCO3

**For a gas, SI = log10(fugacity). Fugacity = pressure * phi / 1 atm.
  For ideal gases, phi = 1.

Reaction step 102.

Using solution 1.	
Using pure phase assemblage 1.	
Using gas phase 1.	
Using kinetics 1.	

Kinetics 1.	

	Time step: 86400 seconds  (Incremented time: 8.8128e+06 seconds)

	Rate name       Delta Moles Total Moles   Reactant        Coefficient

	Waterox           6.165e-06   9.632e-04   Fe+2                     -1
	                                          H2                       -1
	                                          H2O                       2
	                                          OH-                      -2

-----------------------------------Gas phase-----------------------------------

Total pressure:  0.39      atmospheres 
    Gas volume:   7.60e-02 liters
  Molar volume:   6.04e+01 liters/mole

                                                        Moles in gas
                                            ----------------------------------
Component                log P           P     Initial       Final       Delta

CO2(g)                   -3.78   1.669e-04   5.422e-07   5.421e-07  -8.944e-11
H2(g)                    -0.41   3.875e-01   1.251e-03   1.259e-03   8.068e-06

-------------------------------Phase assemblage--------------------------------

                                                      Moles in assemblage
Phase               SI  log IAP  log K(T, P)   Initial       Final       Delta

Maghemite       -11.78    -5.39      6.39    0.000e+00           0   0.000e+00
Magnetite        -0.00     5.07      5.07    3.190e-04   3.210e-04   2.055e-06

-----------------------------Solution composition------------------------------

	Elements           Molality       Moles

	C                 6.929e-04   5.219e-05
	Ca                1.804e-04   1.359e-05
	Cat               2.372e-03   1.787e-04
	Cl                1.779e-04   1.340e-05
	Fe                1.143e-06   8.611e-08
	K                 3.009e-05   2.267e-06
	Mg                2.418e-04   1.821e-05
	N                 9.982e-06   7.519e-07
	Na                6.019e-04   4.534e-05
	S                 1.490e-03   1.122e-04

----------------------------Description of solution----------------------------

                                       pH  =   8.317      Charge balance
                                       pe  =  -8.134      Adjusted to redox equilibrium
      Specific Conductance (µS/cm,  12°C)  = 1
                          Density (g/cm³)  =   0.99969
                               Volume (L)  =   0.07536
                        Activity of water  =   1.000
                 Ionic strength (mol/kgw)  =   5.559e-03
                       Mass of water (kg)  =   7.532e-02
                 Total alkalinity (eq/kg)  =   6.928e-04
                       Total CO2 (mol/kg)  =   6.929e-04
                         Temperature (°C)  =  12.00
                           Pressure (atm)  =  0.39
                  Electrical balance (eq)  =  -1.263e-11
 Percent error, 100*(Cat-|An|)/(Cat+|An|)  =  -0.00
                               Iterations  =  25
                                  Total H  = 8.361987e+00
                                  Total O  = 4.181549e+00

----------------------------Distribution of species----------------------------

                                               Log       Log       Log    mole V
   Species          Molality    Activity  Molality  Activity     Gamma   cm³/mol

   OH-             7.832e-07   7.237e-07    -6.106    -6.140    -0.034     (0)  
   H+              5.170e-09   4.819e-09    -8.287    -8.317    -0.031      0.00
   H2O-0.01        1.206e-09   1.206e-09    -8.919    -8.919    -0.000     (0)  
   H2O             5.551e+01   9.999e-01     1.744    -0.000     0.000     18.03
C(4)          6.929e-04
   HCO3-           6.749e-04   6.256e-04    -3.171    -3.204    -0.033     (0)  
   CO2             8.381e-06   8.392e-06    -5.077    -5.076     0.001     (0)  
   CO3-2           6.050e-06   4.468e-06    -5.218    -5.350    -0.132     (0)  
   MgHCO3+         1.198e-06   1.108e-06    -5.922    -5.955    -0.034     (0)  
   CaHCO3+         7.686e-07   7.126e-07    -6.114    -6.147    -0.033     (0)  
   CaCO3           7.188e-07   7.197e-07    -6.143    -6.143     0.001     (0)  
   MgCO3           5.490e-07   5.497e-07    -6.260    -6.260     0.001     (0)  
   NaHCO3          1.948e-07   1.950e-07    -6.710    -6.710     0.001     (0)  
   FeCO3           7.215e-08   7.224e-08    -7.142    -7.141     0.001     (0)  
   FeHCO3+         4.558e-08   4.217e-08    -7.341    -7.375    -0.034     (0)  
   NaCO3-          2.512e-08   2.324e-08    -7.600    -7.634    -0.034     (0)  
Ca            1.804e-04
   Ca+2            1.573e-04   1.161e-04    -3.803    -3.935    -0.132     (0)  
   CaSO4           2.157e-05   2.160e-05    -4.666    -4.666     0.001     (0)  
   CaHCO3+         7.686e-07   7.126e-07    -6.114    -6.147    -0.033     (0)  
   CaCO3           7.188e-07   7.197e-07    -6.143    -6.143     0.001     (0)  
   CaOH+           4.323e-09   3.999e-09    -8.364    -8.398    -0.034     (0)  
   CaHSO4+         5.726e-13   5.297e-13   -12.242   -12.276    -0.034     (0)  
Cat           2.372e-03
   Cat+            2.372e-03   2.194e-03    -2.625    -2.659    -0.034     (0)  
Cl            1.779e-04
   Cl-             1.779e-04   1.644e-04    -3.750    -3.784    -0.034     (0)  
   FeCl+           1.654e-10   1.530e-10    -9.782    -9.815    -0.034     (0)  
   HCl             1.692e-13   1.694e-13   -12.772   -12.771     0.001     (0)  
   FeCl+2          9.902e-31   7.252e-31   -30.004   -30.140    -0.135     (0)  
   FeCl2+          8.859e-34   8.196e-34   -33.053   -33.086    -0.034     (0)  
   FeCl3           1.346e-38   1.348e-38   -37.871   -37.870     0.001     (0)  
Fe(2)         1.143e-06
   Fe+2            9.091e-07   6.740e-07    -6.041    -6.171    -0.130     (0)  
   FeSO4           9.882e-08   9.895e-08    -7.005    -7.005     0.001     (0)  
   FeCO3           7.215e-08   7.224e-08    -7.142    -7.141     0.001     (0)  
   FeHCO3+         4.558e-08   4.217e-08    -7.341    -7.375    -0.034     (0)  
   FeOH+           1.731e-08   1.602e-08    -7.762    -7.795    -0.034     (0)  
   FeCl+           1.654e-10   1.530e-10    -9.782    -9.815    -0.034     (0)  
   Fe(OH)2         8.662e-12   8.673e-12   -11.062   -11.062     0.001     (0)  
   Fe(OH)3-        6.325e-14   5.851e-14   -13.199   -13.233    -0.034     (0)  
   FeHSO4+         3.324e-15   3.075e-15   -14.478   -14.512    -0.034     (0)  
Fe(3)         9.763e-17
   Fe(OH)3         8.192e-17   8.202e-17   -16.087   -16.086     0.001     (0)  
   Fe(OH)4-        9.717e-18   8.989e-18   -17.012   -17.046    -0.034     (0)  
   Fe(OH)2+        5.998e-18   5.549e-18   -17.222   -17.256    -0.034     (0)  
   FeOH+2          1.847e-22   1.352e-22   -21.734   -21.869    -0.135     (0)  
   FeSO4+          2.087e-27   1.930e-27   -26.681   -26.714    -0.034     (0)  
   Fe+3            4.231e-28   2.247e-28   -27.374   -27.648    -0.275     (0)  
   Fe(SO4)2-       4.582e-29   4.239e-29   -28.339   -28.373    -0.034     (0)  
   FeCl+2          9.902e-31   7.252e-31   -30.004   -30.140    -0.135     (0)  
   FeCl2+          8.859e-34   8.196e-34   -33.053   -33.086    -0.034     (0)  
   FeHSO4+2        3.516e-35   2.575e-35   -34.454   -34.589    -0.135     (0)  
   FeCl3           1.346e-38   1.348e-38   -37.871   -37.870     0.001     (0)  
   Fe2(OH)2+4      0.000e+00   0.000e+00   -41.523   -42.064    -0.541     (0)  
   Fe3(OH)4+5      0.000e+00   0.000e+00   -55.610   -56.455    -0.845     (0)  
H(0)          6.274e-04
   H2              3.137e-04   3.141e-04    -3.503    -3.503     0.001     (0)  
K             3.009e-05
   K+              2.992e-05   2.765e-05    -4.524    -4.558    -0.034      8.30
   KSO4-           1.754e-07   1.622e-07    -6.756    -6.790    -0.034     (0)  
   KOH             1.987e-11   1.990e-11   -10.702   -10.701     0.001     (0)  
Mg            2.418e-04
   Mg+2            2.125e-04   1.574e-04    -3.673    -3.803    -0.130     (0)  
   MgSO4           2.749e-05   2.753e-05    -4.561    -4.560     0.001     (0)  
   MgHCO3+         1.198e-06   1.108e-06    -5.922    -5.955    -0.034     (0)  
   MgCO3           5.490e-07   5.497e-07    -6.260    -6.260     0.00